1
    SWAT May 26   VER 2020/Rev 681                                                                       0/ 0/   0      0: 0: 0

    General Input/Output section (file.cio):                                        
    12/22/2020 12:00:00 AM ARCGIS-SWAT interface AV                                 
                                                                                    
         Number of years in run:    8
         Area of watershed:     2015.410 km2
         Random number generator cycles: 0, use default numbers

         Initial random number seed: wet/dry day prob        748932582
         Initial random number seed: radiation              1948832765
         Initial random number seed: precipitation           857034417
         Initial random number seed: 0.5 hr rainfall          67377721
         Initial random number seed: wind speed              366304404
         Initial random number seed: irrigation             1094585182
         Initial random number seed: relative humidity      1767585417
         Initial random number seed: max temperature         608439319
         Initial random number seed: min temperature         592757081

         Precipitation data used in run:
          Multiple gages read for watershed
             Daily rainfall data used

         Temperature data used in run:
          Multiple gages read for watershed

         PET method used: Penman-Monteith

         Rainfall/Runoff/Routing Option:
          Daily rainfall data
          Runoff estimated with curve number method
          Daily stream routing
           Variable Storage routing method
           Channel dimensions remain constant
           Subbasin algae/CBOD loadings not modeled
           In-stream nutrient transformations modeled using QUAL2E equations

         Subbasin Input Summary:
          Sub Latitude  Elev(m) #HRUs Ponds Elevbnds Wetlnd
            1    15.76    43.35    12                   
            2    15.76   367.93    21                   
            3    15.76    76.58    14                   
            4    15.76   310.81    18                   
            5    15.76   272.11    19                   
            6    15.76   359.53    23                   
            7    15.76   465.24     8                   
            8    15.76   317.59    12                   
            9    15.76   217.79    12                   
           10    15.76   497.24    10                   
           11    15.76   345.30    24                   
           12    15.76   392.13    12                   
           13    15.76   546.99     9                   
           14    15.76   280.58     9                   
           15    15.76   483.82     7                   
           16    15.76   395.57    22                   
           17    15.76   440.28    11                   
           18    15.76   626.89    16                   
           19    15.76  1015.04     9                   
           20    15.76   454.55    27                   
           21    15.76   371.60    16                   
           22    15.76   566.35    14                   
           23    15.76   476.26    31                   
           24    15.76   694.77    14                   
           25    15.76   573.98    24                   
           26    15.76   863.96    13                   
           27    15.76   459.04    11                   
           28    15.76  1025.92    13                   
           29    15.76   425.44    13                   
           30    15.76   820.52    21                   
           31    15.76  1082.99    20                   
           32    15.76   712.69    21                   
           33    15.76  1056.58    24                   
           34    15.75  1165.38    22                   
           35    15.75  1023.63    19                   
           36    15.75  1385.36    10                   
           37    15.75  1028.05    21                   
           38    15.75  1349.26    13                   
           39    15.75  1265.71    31                   
           40    15.75  1094.34    24                   
           41    15.75  1587.56    13                   
           42    15.75  1445.23    14                   
           43    15.75  1637.88    14                   

         HRU Input Summary Table 1:
          Sub   HRU   Area(ha) Slope SlpLgth(m) Ovrlnd_N CondII_CN TimeConc(hr) ESCO EPCO
            1      1       0.09 0.030      91.46    0.010     92.00        0.151 0.95 1.00
            1      2       3.42 0.113      60.98    0.010     92.00        0.089 0.95 1.00
            1      3       0.90 0.024      91.46    0.100     79.00        0.645 0.95 1.00
            1      4       1.71 0.132      24.39    0.100     79.00        0.180 0.95 1.00
            1      5       1.71 0.104      60.98    0.140     87.00        0.402 0.95 1.00
            1      6       0.27 0.038      91.46    0.140     87.00        0.686 0.95 1.00
            1      7       1.17 0.033      91.46    0.140     94.00        0.718 0.95 1.00
            1      8      10.44 0.258       9.15    0.140     94.00        0.123 0.95 1.00
            1      9       0.27 0.348       9.15    0.140     86.00        0.090 0.95 1.00
            1     10       0.09 0.012     121.95    0.100     77.00        0.940 0.95 1.00
            1     11       2.25 0.521       9.15    0.100     77.00        0.071 0.95 1.00
            1     12       0.63 0.488       9.15    0.100     55.00        0.068 0.95 1.00
            2     13       0.63 0.272       9.15    0.010     92.00        0.020 0.95 1.00
            2     14       0.36 0.032      91.46    0.010     92.00        0.148 0.95 1.00
            2     15       2.07 0.033      91.46    0.100     79.00        0.585 0.95 1.00
            2     16      26.46 0.280       9.15    0.100     79.00        0.084 0.95 1.00
            2     17      13.77 0.292       9.15    0.100     59.00        0.080 0.95 1.00
            2     18       0.36 0.035      91.46    0.100     59.00        0.574 0.95 1.00
            2     19      27.72 0.356       9.15    0.150     84.00        0.099 0.95 1.00
            2     20       0.99 0.034      91.46    0.150     84.00        0.738 0.95 1.00
            2     21       9.72 0.615       9.15    0.150     69.00        0.081 0.95 1.00
            2     22       0.90 0.032      91.46    0.150     69.00        0.752 0.95 1.00
            2     23       0.45 0.020      91.46    0.140     87.00        0.830 0.95 1.00
            2     24       3.51 0.221      15.24    0.140     87.00        0.139 0.95 1.00
            2     25      11.70 0.367       9.15    0.140     77.00        0.091 0.95 1.00
            2     26     134.02 0.363       9.15    0.140     94.00        0.116 0.95 1.00
            2     27       1.53 0.034      91.46    0.140     94.00        0.709 0.95 1.00
            2     28     116.65 0.281       9.15    0.140     86.00        0.120 0.95 1.00
            2     29       0.45 0.040      91.46    0.140     86.00        0.675 0.95 1.00
            2     30    1688.27 0.326       9.15    0.100     77.00        0.337 0.95 1.00
            2     31      25.20 0.035      91.46    0.100     77.00        0.580 0.95 1.00
            2     32      45.63 0.032      91.46    0.100     55.00        0.600 0.95 1.00
            2     33    3616.41 0.316       9.15    0.100     55.00        0.586 0.95 1.00
            3     34       7.92 0.031      91.46    0.010     92.00        0.161 0.95 1.00
            3     35      30.06 0.132      24.39    0.010     92.00        0.080 0.95 1.00
            3     36       3.51 0.033      91.46    0.100     79.00        0.589 0.95 1.00
            3     37       8.19 0.107      60.98    0.100     79.00        0.333 0.95 1.00
            3     38       4.86 0.418       9.15    0.150     84.00        0.095 0.95 1.00
            3     39       1.98 0.035      91.46    0.140     87.00        0.705 0.95 1.00
            3     40      12.15 0.154      24.39    0.140     87.00        0.220 0.95 1.00
            3     41      11.25 0.034      91.46    0.140     94.00        0.723 0.95 1.00
            3     42     114.67 0.274       9.15    0.140     94.00        0.212 0.95 1.00
            3     43      12.33 0.378       9.15    0.140     86.00        0.103 0.95 1.00
            3     44       0.09 0.029      91.46    0.140     86.00        0.743 0.95 1.00
            3     45      41.04 0.425       9.15    0.100     77.00        0.116 0.95 1.00
            3     46       0.09 0.042      91.46    0.100     77.00        0.543 0.95 1.00
            3     47       3.78 0.494       9.15    0.100     55.00        0.071 0.95 1.00
            4     48       2.52 0.086      60.98    0.010     92.00        0.087 0.95 1.00
            4     49       2.52 0.031      91.46    0.010     92.00        0.150 0.95 1.00
            4     50       1.89 0.210      15.24    0.010     92.00        0.029 0.95 1.00
            4     51       0.54 0.031      91.46    0.010     92.00        0.150 0.95 1.00
            4     52       8.01 0.032      91.46    0.100     59.00        0.592 0.95 1.00
            4     53      31.41 0.154      24.39    0.100     59.00        0.175 0.95 1.00
            4     54       1.89 0.029      91.46    0.150     69.00        0.775 0.95 1.00
            4     55       2.52 0.287       9.15    0.150     69.00        0.099 0.95 1.00
            4     56       0.72 0.424       9.15    0.140     87.00        0.084 0.95 1.00
            4     57      19.89 0.430       9.15    0.140     77.00        0.089 0.95 1.00
            4     58       0.18 0.036      91.46    0.140     77.00        0.696 0.95 1.00
            4     59       0.18 0.044      91.46    0.140     94.00        0.655 0.95 1.00
            4     60      24.21 0.312       9.15    0.140     94.00        0.098 0.95 1.00
            4     61     535.45 0.278       9.15    0.140     86.00        0.199 0.95 1.00
            4     62      39.51 0.031      91.46    0.140     86.00        0.739 0.95 1.00
            4     63       0.54 0.306       9.15    0.100     77.00        0.075 0.95 1.00
            4     64      44.19 0.033      91.46    0.100     55.00        0.596 0.95 1.00
            4     65    1963.60 0.359       9.15    0.100     55.00        0.397 0.95 1.00
            5     66      17.73 0.032      91.46    0.010     92.00        0.153 0.95 1.00
            5     67      90.19 0.141      24.39    0.010     92.00        0.064 0.95 1.00
            5     68      49.14 0.173      18.29    0.100     79.00        0.148 0.95 1.00
            5     69       4.77 0.033      91.46    0.100     79.00        0.585 0.95 1.00
            5     70       3.96 0.195      18.29    0.100     59.00        0.132 0.95 1.00
            5     71      11.97 0.292       9.15    0.150     84.00        0.101 0.95 1.00
            5     72       0.90 0.030      91.46    0.150     84.00        0.767 0.95 1.00
            5     73       0.63 0.549       9.15    0.150     69.00        0.081 0.95 1.00
            5     74     119.71 0.424       9.15    0.140     87.00        0.111 0.95 1.00
            5     75       3.87 0.028      91.46    0.140     87.00        0.752 0.95 1.00
            5     76       6.48 0.387       9.15    0.140     77.00        0.088 0.95 1.00
            5     77     473.26 0.292       9.15    0.140     94.00        0.184 0.95 1.00
            5     78      27.99 0.032      91.46    0.140     94.00        0.729 0.95 1.00
            5     79     265.97 0.312       9.15    0.140     86.00        0.146 0.95 1.00
            5     80       4.68 0.032      91.46    0.140     86.00        0.723 0.95 1.00
            5     81    2090.87 0.415       9.15    0.100     77.00        0.403 0.95 1.00
            5     82      13.05 0.033      91.46    0.100     77.00        0.588 0.95 1.00
            5     83      15.30 0.033      91.46    0.100     55.00        0.588 0.95 1.00
            5     84    1062.45 0.402       9.15    0.100     55.00        0.254 0.95 1.00
            6     85       5.04 0.126      24.39    0.010     92.00        0.047 0.95 1.00
            6     86       0.81 0.027      91.46    0.010     92.00        0.156 0.95 1.00
            6     87       7.38 0.183      18.29    0.010     92.00        0.037 0.95 1.00
            6     88       1.89 0.034      91.46    0.010     92.00        0.146 0.95 1.00
            6     89       3.06 0.029      91.46    0.100     79.00        0.608 0.95 1.00
            6     90      10.35 0.148      24.39    0.100     79.00        0.173 0.95 1.00
            6     91      10.71 0.156      24.39    0.100     59.00        0.170 0.95 1.00
            6     92       1.71 0.031      91.46    0.100     59.00        0.596 0.95 1.00
            6     93       0.54 0.244      15.24    0.150     84.00        0.140 0.95 1.00
            6     94       4.32 0.341       9.15    0.150     69.00        0.095 0.95 1.00
            6     95       0.27 0.026      91.46    0.150     69.00        0.800 0.95 1.00
            6     96       0.09 0.046      91.46    0.140     87.00        0.647 0.95 1.00
            6     97      18.45 0.507       9.15    0.140     87.00        0.086 0.95 1.00
            6     98       0.18 0.044      91.46    0.140     77.00        0.655 0.95 1.00
            6     99       5.49 0.246      15.24    0.140     77.00        0.136 0.95 1.00
            6    100       0.27 0.034      91.46    0.140     94.00        0.708 0.95 1.00
            6    101      51.12 0.408       9.15    0.140     94.00        0.102 0.95 1.00
            6    102       3.06 0.034      91.46    0.140     86.00        0.710 0.95 1.00
            6    103     100.27 0.329       9.15    0.140     86.00        0.122 0.95 1.00
            6    104     563.72 0.457       9.15    0.100     77.00        0.210 0.95 1.00
            6    105       2.97 0.033      91.46    0.100     77.00        0.585 0.95 1.00
            6    106     554.09 0.458       9.15    0.100     55.00        0.208 0.95 1.00
            6    107       2.07 0.035      91.46    0.100     55.00        0.575 0.95 1.00
            7    108       0.09 0.143      24.39    0.010     92.00        0.043 0.95 1.00
            7    109       2.79 0.277       9.15    0.150     69.00        0.100 0.95 1.00
            7    110       0.18 0.016     121.95    0.150     69.00        1.100 0.95 1.00
            7    111       4.05 0.399       9.15    0.140     77.00        0.087 0.95 1.00
            7    112      71.47 0.269       9.15    0.140     86.00        0.122 0.95 1.00
            7    113       2.52 0.034      91.46    0.140     86.00        0.709 0.95 1.00
            7    114    2520.03 0.363       9.15    0.100     55.00        0.673 0.95 1.00
            7    115      34.20 0.033      91.46    0.100     55.00        0.598 0.95 1.00
            8    116       0.18 0.025      91.46    0.010     92.00        0.159 0.95 1.00
            8    117       0.54 0.074      60.98    0.010     92.00        0.090 0.95 1.00
            8    118       4.05 0.032      91.46    0.100     59.00        0.590 0.95 1.00
            8    119      17.91 0.197      18.29    0.100     59.00        0.135 0.95 1.00
            8    120       3.06 0.186      18.29    0.150     69.00        0.170 0.95 1.00
            8    121       2.07 0.027      91.46    0.150     69.00        0.791 0.95 1.00
            8    122      26.91 0.439       9.15    0.140     77.00        0.089 0.95 1.00
            8    123       1.53 0.030      91.46    0.140     77.00        0.736 0.95 1.00
            8    124      76.42 0.033      91.46    0.140     86.00        0.731 0.95 1.00
            8    125     822.31 0.223      15.24    0.140     86.00        0.268 0.95 1.00
            8    126    2875.47 0.459       9.15    0.100     55.00        0.458 0.95 1.00
            8    127      27.81 0.034      91.46    0.100     55.00        0.585 0.95 1.00
            9    128       4.50 0.032      91.46    0.010     92.00        0.150 0.95 1.00
            9    129      20.52 0.148      24.39    0.010     92.00        0.052 0.95 1.00
            9    130       1.26 0.030      91.46    0.100     59.00        0.602 0.95 1.00
            9    131      14.04 0.149      24.39    0.100     59.00        0.175 0.95 1.00
            9    132       0.18 0.034      91.46    0.150     69.00        0.738 0.95 1.00
            9    133      13.50 0.280       9.15    0.150     69.00        0.105 0.95 1.00
            9    134       0.36 0.037      91.46    0.140     77.00        0.691 0.95 1.00
            9    135      11.16 0.262       9.15    0.140     77.00        0.102 0.95 1.00
            9    136      24.57 0.034      91.46    0.140     86.00        0.719 0.95 1.00
            9    137     399.36 0.190      18.29    0.140     86.00        0.286 0.95 1.00
            9    138     677.85 0.450       9.15    0.100     55.00        0.265 0.95 1.00
            9    139       2.61 0.036      91.46    0.100     55.00        0.570 0.95 1.00
           10    140       0.54 0.085      60.98    0.010     92.00        0.087 0.95 1.00
           10    141       0.54 0.153      24.39    0.100     79.00        0.167 0.95 1.00
           10    142       1.35 0.142      24.39    0.100     59.00        0.171 0.95 1.00
           10    143       1.53 0.177      18.29    0.150     69.00        0.172 0.95 1.00
           10    144       0.09 0.106      60.98    0.140     87.00        0.395 0.95 1.00
           10    145       2.79 0.418       9.15    0.140     77.00        0.085 0.95 1.00
           10    146      35.73 0.221      15.24    0.140     86.00        0.150 0.95 1.00
           10    147       2.97 0.037      91.46    0.140     86.00        0.692 0.95 1.00
           10    148    2620.75 0.387       9.15    0.100     55.00        0.600 0.95 1.00
           10    149      24.48 0.034      91.46    0.100     55.00        0.587 0.95 1.00
           11    150     119.62 0.117      60.98    0.010     92.00        0.105 0.95 1.00
           11    151      53.64 0.031      91.46    0.010     92.00        0.163 0.95 1.00
           11    152      40.86 0.122      24.39    0.010     92.00        0.055 0.95 1.00
           11    153      13.41 0.032      91.46    0.010     92.00        0.152 0.95 1.00
           11    154      12.87 0.028      91.46    0.100     79.00        0.617 0.95 1.00
           11    155      67.96 0.172      18.29    0.100     79.00        0.152 0.95 1.00
           11    156      45.18 0.213      15.24    0.100     59.00        0.125 0.95 1.00
           11    157       5.40 0.029      91.46    0.100     59.00        0.609 0.95 1.00
           11    158      26.01 0.172      18.29    0.150     84.00        0.180 0.95 1.00
           11    159       3.06 0.027      91.46    0.150     84.00        0.792 0.95 1.00
           11    160       0.90 0.026      91.46    0.150     69.00        0.800 0.95 1.00
           11    161      13.14 0.549       9.15    0.150     69.00        0.084 0.95 1.00
           11    162      34.65 0.165      18.29    0.140     87.00        0.177 0.95 1.00
           11    163       2.97 0.036      91.46    0.140     87.00        0.697 0.95 1.00
           11    164       4.05 0.031      91.46    0.140     77.00        0.729 0.95 1.00
           11    165     251.12 0.335       9.15    0.140     77.00        0.140 0.95 1.00
           11    166     225.74 0.232      15.24    0.140     94.00        0.182 0.95 1.00
           11    167       9.72 0.032      91.46    0.140     94.00        0.724 0.95 1.00
           11    168    1121.04 0.273       9.15    0.140     86.00        0.283 0.95 1.00
           11    169      25.38 0.033      91.46    0.140     86.00        0.721 0.95 1.00
           11    170       7.83 0.036      91.46    0.100     77.00        0.571 0.95 1.00
           11    171     201.35 0.284       9.15    0.100     77.00        0.119 0.95 1.00
           11    172    9249.79 0.385       9.15    0.100     55.00        1.260 0.95 1.00
           11    173      80.92 0.034      91.46    0.100     55.00        0.597 0.95 1.00
           12    174       5.22 0.033      91.46    0.010     92.00        0.149 0.95 1.00
           12    175      36.72 0.201      15.24    0.010     92.00        0.041 0.95 1.00
           12    176       0.27 0.029      91.46    0.100     59.00        0.607 0.95 1.00
           12    177       2.70 0.176      18.29    0.100     59.00        0.136 0.95 1.00
           12    178       3.78 0.034      91.46    0.150     69.00        0.740 0.95 1.00
           12    179      73.99 0.268       9.15    0.150     69.00        0.121 0.95 1.00
           12    180      33.93 0.309       9.15    0.140     77.00        0.103 0.95 1.00
           12    181       0.63 0.034      91.46    0.140     77.00        0.708 0.95 1.00
           12    182       9.81 0.033      91.46    0.140     86.00        0.718 0.95 1.00
           12    183     281.36 0.258       9.15    0.140     86.00        0.166 0.95 1.00
           12    184      96.85 0.033      91.46    0.100     55.00        0.611 0.95 1.00
           12    185    7460.98 0.383       9.15    0.100     55.00        1.296 0.95 1.00
           13    186       0.99 0.154      24.39    0.150     69.00        0.213 0.95 1.00
           13    187       0.45 0.583       9.15    0.150     84.00        0.079 0.95 1.00
           13    188       3.78 0.444       9.15    0.140     77.00        0.083 0.95 1.00
           13    189       0.54 0.038      91.46    0.140     86.00        0.685 0.95 1.00
           13    190      12.06 0.297       9.15    0.140     86.00        0.096 0.95 1.00
           13    191    3448.81 0.355       9.15    0.100     55.00        0.499 0.95 1.00
           13    192      44.91 0.033      91.46    0.100     55.00        0.593 0.95 1.00
           13    193     496.84 0.418       9.15    0.100     77.00        0.147 0.95 1.00
           13    194       2.97 0.027      91.46    0.100     77.00        0.621 0.95 1.00
           14    195       0.54 0.036      91.46    0.010     92.00        0.143 0.95 1.00
           14    196       3.87 0.191      18.29    0.010     92.00        0.036 0.95 1.00
           14    197      10.26 0.265       9.15    0.150     69.00        0.108 0.95 1.00
           14    198       0.99 0.038      91.46    0.150     69.00        0.715 0.95 1.00
           14    199       0.36 0.218      15.24    0.140     77.00        0.139 0.95 1.00
           14    200       0.36 0.039      91.46    0.140     86.00        0.680 0.95 1.00
           14    201       8.28 0.266       9.15    0.140     86.00        0.102 0.95 1.00
           14    202     509.44 0.326       9.15    0.100     55.00        0.314 0.95 1.00
           14    203       9.72 0.034      91.46    0.100     55.00        0.586 0.95 1.00
           15    204       0.18 0.130      24.39    0.010     92.00        0.044 0.95 1.00
           15    205       1.35 0.346       9.15    0.150     69.00        0.093 0.95 1.00
           15    206       0.27 0.178      18.29    0.140     77.00        0.164 0.95 1.00
           15    207      26.10 0.185      18.29    0.140     86.00        0.170 0.95 1.00
           15    208       1.17 0.036      91.46    0.140     86.00        0.697 0.95 1.00
           15    209    3553.58 0.366       9.15    0.100     55.00        0.642 0.95 1.00
           15    210      61.48 0.033      91.46    0.100     55.00        0.600 0.95 1.00
           16    211       8.46 0.168      18.29    0.010     92.00        0.036 0.95 1.00
           16    212       1.35 0.036      91.46    0.010     92.00        0.143 0.95 1.00
           16    213      46.26 0.177      18.29    0.010     92.00        0.043 0.95 1.00
           16    214       8.19 0.033      91.46    0.010     92.00        0.149 0.95 1.00
           16    215       1.08 0.417       9.15    0.100     79.00        0.069 0.95 1.00
           16    216      34.38 0.429       9.15    0.100     59.00        0.075 0.95 1.00
           16    217       1.26 0.040      91.46    0.100     59.00        0.551 0.95 1.00
           16    218       7.74 0.254       9.15    0.150     84.00        0.103 0.95 1.00
           16    219       0.81 0.040      91.46    0.150     84.00        0.703 0.95 1.00
           16    220       1.62 0.033      91.46    0.150     69.00        0.745 0.95 1.00
           16    221      11.52 0.313       9.15    0.150     69.00        0.098 0.95 1.00
           16    222       0.63 0.210      15.24    0.140     87.00        0.140 0.95 1.00
           16    223       0.18 0.010     121.95    0.140     77.00        1.215 0.95 1.00
           16    224      52.38 0.431       9.15    0.140     77.00        0.094 0.95 1.00
           16    225       0.45 0.029      91.46    0.140     94.00        0.743 0.95 1.00
           16    226      11.34 0.264       9.15    0.140     94.00        0.099 0.95 1.00
           16    227     185.51 0.318       9.15    0.140     86.00        0.123 0.95 1.00
           16    228       6.84 0.034      91.46    0.140     86.00        0.710 0.95 1.00
           16    229     191.09 0.399       9.15    0.100     77.00        0.103 0.95 1.00
           16    230       1.89 0.034      91.46    0.100     77.00        0.579 0.95 1.00
           16    231    4914.85 0.345       9.15    0.100     55.00        0.641 0.95 1.00
           16    232      81.37 0.033      91.46    0.100     55.00        0.600 0.95 1.00
           17    233       0.27 0.040      91.46    0.010     92.00        0.139 0.95 1.00
           17    234       5.49 0.119      60.98    0.100     59.00        0.313 0.95 1.00
           17    235       2.34 0.033      91.46    0.100     59.00        0.584 0.95 1.00
           17    236       0.18 0.039      91.46    0.150     69.00        0.708 0.95 1.00
           17    237       1.80 0.142      24.39    0.150     69.00        0.218 0.95 1.00
           17    238       1.17 0.028      91.46    0.140     77.00        0.751 0.95 1.00
           17    239      16.74 0.281       9.15    0.140     77.00        0.098 0.95 1.00
           17    240      27.18 0.031      91.46    0.140     86.00        0.734 0.95 1.00
           17    241     216.47 0.176      18.29    0.140     86.00        0.200 0.95 1.00
           17    242    2766.38 0.372       9.15    0.100     55.00        0.396 0.95 1.00
           17    243      54.72 0.033      91.46    0.100     55.00        0.594 0.95 1.00
           18    244       0.81 0.031      91.46    0.010     92.00        0.150 0.95 1.00
           18    245      13.41 0.210      15.24    0.010     92.00        0.032 0.95 1.00
           18    246       0.18 0.025      91.46    0.100     59.00        0.635 0.95 1.00
           18    247       2.97 0.213      15.24    0.100     59.00        0.115 0.95 1.00
           18    248      87.85 0.281       9.15    0.150     69.00        0.116 0.95 1.00
           18    249       5.04 0.033      91.46    0.150     69.00        0.746 0.95 1.00
           18    250       0.09 0.154      24.39    0.150     84.00        0.212 0.95 1.00
           18    251       0.63 0.037      91.46    0.140     77.00        0.691 0.95 1.00
           18    252      29.16 0.343       9.15    0.140     77.00        0.096 0.95 1.00
           18    253      86.05 0.300       9.15    0.140     86.00        0.110 0.95 1.00
           18    254       3.06 0.028      91.46    0.140     86.00        0.751 0.95 1.00
           18    255       1.08 0.823       9.15    0.140     94.00        0.069 0.95 1.00
           18    256    7080.97 0.358       9.15    0.100     55.00        0.881 0.95 1.00
           18    257      76.24 0.033      91.46    0.100     55.00        0.599 0.95 1.00
           18    258       7.47 0.032      91.46    0.100     77.00        0.591 0.95 1.00
           18    259     516.73 0.387       9.15    0.100     77.00        0.152 0.95 1.00
           19    260       2.97 0.271       9.15    0.150     69.00        0.100 0.95 1.00
           19    261       0.09 0.024      91.46    0.150     69.00        0.819 0.95 1.00
           19    262       0.09 0.302       9.15    0.150     84.00        0.096 0.95 1.00
           19    263       1.35 0.394       9.15    0.140     77.00        0.086 0.95 1.00
           19    264       3.06 0.335       9.15    0.140     86.00        0.091 0.95 1.00
           19    265      50.49 0.033      91.46    0.100     55.00        0.596 0.95 1.00
           19    266    3619.83 0.330       9.15    0.100     55.00        0.570 0.95 1.00
           19    267     620.60 0.194      18.29    0.100     77.00        0.237 0.95 1.00
           19    268      49.23 0.032      91.46    0.100     77.00        0.601 0.95 1.00
           20    269      36.27 0.191      18.29    0.010     92.00        0.041 0.95 1.00
           20    270       5.58 0.034      91.46    0.010     92.00        0.147 0.95 1.00
           20    271      72.91 0.216      15.24    0.010     92.00        0.043 0.95 1.00
           20    272      10.17 0.033      91.46    0.010     92.00        0.149 0.95 1.00
           20    273       0.45 0.035      91.46    0.100     79.00        0.574 0.95 1.00
           20    274      11.52 0.256       9.15    0.100     79.00        0.082 0.95 1.00
           20    275       4.05 0.034      91.46    0.100     59.00        0.580 0.95 1.00
           20    276      71.65 0.265       9.15    0.100     59.00        0.093 0.95 1.00
           20    277       0.45 0.038      91.46    0.150     84.00        0.714 0.95 1.00
           20    278      10.80 0.277       9.15    0.150     84.00        0.102 0.95 1.00
           20    279       1.71 0.032      91.46    0.150     69.00        0.752 0.95 1.00
           20    280      34.74 0.382       9.15    0.150     69.00        0.098 0.95 1.00
           20    281       9.63 1.000       9.15    0.150     84.00        0.070 0.95 1.00
           20    282      16.38 0.254       9.15    0.140     87.00        0.101 0.95 1.00
           20    283       0.45 0.032      91.46    0.140     87.00        0.721 0.95 1.00
           20    284      10.89 0.033      91.46    0.140     77.00        0.717 0.95 1.00
           20    285     203.51 0.328       9.15    0.140     77.00        0.127 0.95 1.00
           20    286       2.25 0.031      91.46    0.140     94.00        0.729 0.95 1.00
           20    287      74.44 0.262       9.15    0.140     94.00        0.112 0.95 1.00
           20    288     857.14 0.303       9.15    0.140     86.00        0.221 0.95 1.00
           20    289      29.61 0.033      91.46    0.140     86.00        0.721 0.95 1.00
           20    290     166.78 0.368       9.15    0.100     77.00        0.102 0.95 1.00
           20    291       2.34 0.034      91.46    0.100     77.00        0.579 0.95 1.00
           20    292    7818.94 0.397       9.15    0.100     55.00        0.963 0.95 1.00
           20    293      87.76 0.033      91.46    0.100     55.00        0.601 0.95 1.00
           20    294       0.18 0.036      91.46    0.100     77.00        0.569 0.95 1.00
           20    295     126.37 0.691       9.15    0.100     77.00        0.083 0.95 1.00
           21    296       6.84 0.030      91.46    0.010     92.00        0.155 0.95 1.00
           21    297       8.91 0.123      24.39    0.010     92.00        0.050 0.95 1.00
           21    298      57.96 0.123      24.39    0.100     59.00        0.207 0.95 1.00
           21    299      71.74 0.029      91.46    0.100     59.00        0.642 0.95 1.00
           21    300      45.63 0.176      18.29    0.150     69.00        0.195 0.95 1.00
           21    301      18.00 0.030      91.46    0.150     69.00        0.777 0.95 1.00
           21    302      34.20 0.385       9.15    0.140     77.00        0.104 0.95 1.00
           21    303       5.85 0.030      91.46    0.140     77.00        0.739 0.95 1.00
           21    304       2.07 0.083      60.98    0.140     94.00        0.426 0.95 1.00
           21    305       0.36 0.029      91.46    0.140     94.00        0.743 0.95 1.00
           21    306     328.08 0.258       9.15    0.140     86.00        0.228 0.95 1.00
           21    307      60.84 0.030      91.46    0.140     86.00        0.765 0.95 1.00
           21    308      66.07 0.145      24.39    0.100     77.00        0.202 0.95 1.00
           21    309      31.14 0.031      91.46    0.100     77.00        0.612 0.95 1.00
           21    310     386.76 0.382       9.15    0.100     55.00        0.222 0.95 1.00
           21    311      29.70 0.031      91.46    0.100     55.00        0.611 0.95 1.00
           22    312       3.96 0.190      18.29    0.010     92.00        0.035 0.95 1.00
           22    313       2.34 0.028      91.46    0.010     92.00        0.155 0.95 1.00
           22    314      16.20 0.031      91.46    0.100     59.00        0.600 0.95 1.00
           22    315      54.09 0.202      15.24    0.100     59.00        0.130 0.95 1.00
           22    316      39.24 0.134      24.39    0.150     69.00        0.232 0.95 1.00
           22    317      16.83 0.032      91.46    0.150     69.00        0.757 0.95 1.00
           22    318       5.94 0.032      91.46    0.140     77.00        0.723 0.95 1.00
           22    319      89.20 0.359       9.15    0.140     77.00        0.111 0.95 1.00
           22    320     922.22 0.257       9.15    0.140     86.00        0.273 0.95 1.00
           22    321      70.21 0.031      91.46    0.140     86.00        0.746 0.95 1.00
           22    322    4033.23 0.363       9.15    0.100     55.00        0.713 0.95 1.00
           22    323      68.59 0.033      91.46    0.100     55.00        0.602 0.95 1.00
           22    324       1.26 0.033      91.46    0.100     77.00        0.584 0.95 1.00
           22    325     175.06 0.314       9.15    0.100     77.00        0.116 0.95 1.00
           23    326       0.18 0.039      91.46    0.010     92.00        0.140 0.95 1.00
           23    327       5.22 0.244      15.24    0.010     92.00        0.029 0.95 1.00
           23    328      45.00 0.181      18.29    0.010     92.00        0.043 0.95 1.00
           23    329       9.27 0.033      91.46    0.010     92.00        0.149 0.95 1.00
           23    330       0.54 0.186      18.29    0.100     79.00        0.133 0.95 1.00
           23    331      22.95 0.127      24.39    0.100     59.00        0.181 0.95 1.00
           23    332       6.39 0.032      91.46    0.100     59.00        0.591 0.95 1.00
           23    333       0.09 0.043      91.46    0.150     84.00        0.688 0.95 1.00
           23    334       6.39 0.274       9.15    0.150     84.00        0.101 0.95 1.00
           23    335      40.14 0.220      15.24    0.150     69.00        0.152 0.95 1.00
           23    336      17.37 0.028      91.46    0.150     69.00        0.786 0.95 1.00
           23    337       6.66 0.570       9.15    0.150     84.00        0.081 0.95 1.00
           23    338       0.72 0.034      91.46    0.150     84.00        0.738 0.95 1.00
           23    339       4.05 0.376       9.15    0.140     87.00        0.088 0.95 1.00
           23    340       0.09 0.034      91.46    0.140     87.00        0.708 0.95 1.00
           23    341     220.70 0.312       9.15    0.140     77.00        0.129 0.95 1.00
           23    342      17.46 0.033      91.46    0.140     77.00        0.718 0.95 1.00
           23    343      94.15 0.373       9.15    0.140     87.00        0.104 0.95 1.00
           23    344       0.72 0.033      91.46    0.140     87.00        0.715 0.95 1.00
           23    345      79.12 0.241      15.24    0.140     94.00        0.149 0.95 1.00
           23    346       9.27 0.033      91.46    0.140     94.00        0.717 0.95 1.00
           23    347     708.54 0.247      15.24    0.140     86.00        0.236 0.95 1.00
           23    348      48.60 0.031      91.46    0.140     86.00        0.738 0.95 1.00
           23    349     205.13 0.252       9.15    0.140     94.00        0.132 0.95 1.00
           23    350       5.49 0.033      91.46    0.140     94.00        0.716 0.95 1.00
           23    351     568.13 0.336       9.15    0.100     77.00        0.158 0.95 1.00
           23    352      46.62 0.032      91.46    0.100     77.00        0.599 0.95 1.00
           23    353    2951.43 0.358       9.15    0.100     55.00        0.431 0.95 1.00
           23    354      67.51 0.032      91.46    0.100     55.00        0.602 0.95 1.00
           23    355       1.53 0.036      91.46    0.100     77.00        0.569 0.95 1.00
           23    356     690.09 0.474       9.15    0.100     77.00        0.167 0.95 1.00
           24    357       0.09 0.024      91.46    0.010     92.00        0.161 0.95 1.00
           24    358       0.54 0.164      18.29    0.010     92.00        0.035 0.95 1.00
           24    359       0.09 0.040      91.46    0.100     59.00        0.551 0.95 1.00
           24    360       0.90 0.198      18.29    0.100     59.00        0.130 0.95 1.00
           24    361       0.36 0.514       9.15    0.100     79.00        0.064 0.95 1.00
           24    362       0.09 0.040      91.46    0.150     69.00        0.703 0.95 1.00
           24    363       2.07 0.224      15.24    0.150     69.00        0.144 0.95 1.00
           24    364      13.77 1.000       9.15    0.150     84.00        0.070 0.95 1.00
           24    365       1.17 0.032      91.46    0.140     77.00        0.721 0.95 1.00
           24    366      32.40 0.269       9.15    0.140     77.00        0.103 0.95 1.00
           24    367      39.15 0.034      91.46    0.100     55.00        0.587 0.95 1.00
           24    368    2274.13 0.291       9.15    0.100     55.00        0.361 0.95 1.00
           24    369       4.05 0.034      91.46    0.100     77.00        0.580 0.95 1.00
           24    370    1336.61 0.506       9.15    0.100     77.00        0.243 0.95 1.00
           25    371       1.17 0.239      15.24    0.010     92.00        0.028 0.95 1.00
           25    372       0.90 0.581       9.15    0.010     92.00        0.016 0.95 1.00
           25    373       0.18 0.150      24.39    0.100     79.00        0.168 0.95 1.00
           25    374      25.02 0.031      91.46    0.100     59.00        0.602 0.95 1.00
           25    375      46.62 0.145      24.39    0.100     59.00        0.181 0.95 1.00
           25    376       1.08 0.036      91.46    0.150     84.00        0.726 0.95 1.00
           25    377      11.25 0.318       9.15    0.150     84.00        0.098 0.95 1.00
           25    378      73.27 0.029      91.46    0.150     69.00        0.792 0.95 1.00
           25    379      97.03 0.191      18.29    0.150     69.00        0.190 0.95 1.00
           25    380       2.70 0.578       9.15    0.140     87.00        0.077 0.95 1.00
           25    381      17.37 0.032      91.46    0.140     77.00        0.726 0.95 1.00
           25    382     204.41 0.353       9.15    0.140     77.00        0.131 0.95 1.00
           25    383       0.09 0.186      18.29    0.140     87.00        0.162 0.95 1.00
           25    384      53.10 0.224      15.24    0.140     94.00        0.150 0.95 1.00
           25    385       8.91 0.033      91.46    0.140     94.00        0.717 0.95 1.00
           25    386     131.77 0.032      91.46    0.140     86.00        0.750 0.95 1.00
           25    387    1165.33 0.270       9.15    0.140     86.00        0.293 0.95 1.00
           25    388       6.39 0.269       9.15    0.140     94.00        0.098 0.95 1.00
           25    389     120.97 0.031      91.46    0.100     77.00        0.622 0.95 1.00
           25    390     709.62 0.282       9.15    0.100     77.00        0.205 0.95 1.00
           25    391    2687.62 0.355       9.15    0.100     55.00        0.482 0.95 1.00
           25    392      89.92 0.032      91.46    0.100     55.00        0.610 0.95 1.00
           25    393     660.74 0.400       9.15    0.100     77.00        0.189 0.95 1.00
           25    394       2.07 0.034      91.46    0.100     77.00        0.579 0.95 1.00
           26    395       0.09 0.296       9.15    0.010     92.00        0.019 0.95 1.00
           26    396       0.27 0.194      18.29    0.100     59.00        0.131 0.95 1.00
           26    397       1.62 0.285       9.15    0.150     69.00        0.099 0.95 1.00
           26    398       0.09 0.041      91.46    0.150     69.00        0.698 0.95 1.00
           26    399       0.45 0.670       9.15    0.150     84.00        0.076 0.95 1.00
           26    400       0.63 0.157      24.39    0.140     77.00        0.203 0.95 1.00
           26    401      29.79 0.220      15.24    0.140     86.00        0.148 0.95 1.00
           26    402       4.23 0.033      91.46    0.140     86.00        0.716 0.95 1.00
           26    403       0.09 0.560       9.15    0.140     94.00        0.077 0.95 1.00
           26    404    1007.00 0.266       9.15    0.100     55.00        0.299 0.95 1.00
           26    405      29.61 0.035      91.46    0.100     55.00        0.584 0.95 1.00
           26    406    1511.49 0.403       9.15    0.100     77.00        0.385 0.95 1.00
           26    407       7.65 0.035      91.46    0.100     77.00        0.577 0.95 1.00
           27    408       0.45 0.219      15.24    0.010     92.00        0.029 0.95 1.00
           27    409       0.36 0.031      91.46    0.100     59.00        0.596 0.95 1.00
           27    410       3.69 0.281       9.15    0.100     59.00        0.082 0.95 1.00
           27    411       4.77 0.280       9.15    0.150     69.00        0.105 0.95 1.00
           27    412       0.72 0.038      91.46    0.150     69.00        0.715 0.95 1.00
           27    413       0.90 0.027      91.46    0.140     77.00        0.760 0.95 1.00
           27    414      33.48 0.283       9.15    0.140     77.00        0.129 0.95 1.00
           27    415      24.75 0.243      15.24    0.140     86.00        0.160 0.95 1.00
           27    416       3.51 0.034      91.46    0.140     86.00        0.713 0.95 1.00
           27    417      85.96 0.360       9.15    0.100     55.00        0.150 0.95 1.00
           27    418       3.15 0.031      91.46    0.100     55.00        0.599 0.95 1.00
           28    419       1.80 0.114      60.98    0.100     59.00        0.316 0.95 1.00
           28    420       0.18 0.029      91.46    0.100     59.00        0.607 0.95 1.00
           28    421       1.98 0.129      24.39    0.150     69.00        0.224 0.95 1.00
           28    422       1.35 0.034      91.46    0.150     69.00        0.738 0.95 1.00
           28    423      22.68 0.288       9.15    0.140     77.00        0.099 0.95 1.00
           28    424       1.44 0.028      91.46    0.140     77.00        0.751 0.95 1.00
           28    425       5.22 0.031      91.46    0.140     86.00        0.729 0.95 1.00
           28    426      92.26 0.219      15.24    0.140     86.00        0.156 0.95 1.00
           28    427       1.71 0.535       9.15    0.140     94.00        0.078 0.95 1.00
           28    428    2026.43 0.350       9.15    0.100     55.00        0.341 0.95 1.00
           28    429      31.14 0.031      91.46    0.100     55.00        0.602 0.95 1.00
           28    430    1410.06 0.390       9.15    0.100     77.00        0.266 0.95 1.00
           28    431       7.56 0.032      91.46    0.100     77.00        0.591 0.95 1.00
           29    432       2.07 0.033      91.46    0.010     92.00        0.149 0.95 1.00
           29    433      18.45 0.204      15.24    0.010     92.00        0.042 0.95 1.00
           29    434       4.50 0.170      18.29    0.100     59.00        0.140 0.95 1.00
           29    435       0.36 0.026      91.46    0.100     59.00        0.628 0.95 1.00
           29    436       0.72 0.036      91.46    0.150     69.00        0.726 0.95 1.00
           29    437      10.71 0.315       9.15    0.150     69.00        0.103 0.95 1.00
           29    438     172.36 0.369       9.15    0.140     77.00        0.178 0.95 1.00
           29    439       2.25 0.030      91.46    0.140     77.00        0.737 0.95 1.00
           29    440     215.75 0.284       9.15    0.140     86.00        0.205 0.95 1.00
           29    441       7.92 0.032      91.46    0.140     86.00        0.727 0.95 1.00
           29    442       4.41 0.031      91.46    0.100     55.00        0.599 0.95 1.00
           29    443     286.31 0.361       9.15    0.100     55.00        0.214 0.95 1.00
           29    444      10.08 0.548       9.15    0.100     77.00        0.071 0.95 1.00
           30    445       2.07 0.119      60.98    0.100     59.00        0.312 0.95 1.00
           30    446       0.45 0.032      91.46    0.100     59.00        0.589 0.95 1.00
           30    447       1.44 0.320       9.15    0.100     79.00        0.075 0.95 1.00
           30    448       0.09 0.018     121.95    0.150     69.00        1.061 0.95 1.00
           30    449       2.07 0.215      15.24    0.150     69.00        0.146 0.95 1.00
           30    450       6.03 0.413       9.15    0.150     84.00        0.090 0.95 1.00
           30    451       0.90 0.029      91.46    0.150     84.00        0.774 0.95 1.00
           30    452       9.09 0.481       9.15    0.140     87.00        0.083 0.95 1.00
           30    453       2.07 0.032      91.46    0.140     77.00        0.722 0.95 1.00
           30    454      20.88 0.233      15.24    0.140     77.00        0.142 0.95 1.00
           30    455      60.03 0.362       9.15    0.140     87.00        0.103 0.95 1.00
           30    456       1.62 0.029      91.46    0.140     87.00        0.743 0.95 1.00
           30    457       0.27 0.030      91.46    0.140     86.00        0.735 0.95 1.00
           30    458       1.80 0.230      15.24    0.140     86.00        0.137 0.95 1.00
           30    459       0.72 0.504       9.15    0.140     94.00        0.080 0.95 1.00
           30    460       1.35 0.032      91.46    0.100     77.00        0.590 0.95 1.00
           30    461     242.12 0.418       9.15    0.100     77.00        0.121 0.95 1.00
           30    462    1853.16 0.407       9.15    0.100     55.00        0.380 0.95 1.00
           30    463      12.87 0.032      91.46    0.100     55.00        0.593 0.95 1.00
           30    464    3258.72 0.419       9.15    0.100     77.00        0.578 0.95 1.00
           30    465      22.05 0.033      91.46    0.100     77.00        0.590 0.95 1.00
           31    466       0.18 0.300       9.15    0.010     92.00        0.019 0.95 1.00
           31    467       0.45 0.201      15.24    0.100     59.00        0.116 0.95 1.00
           31    468       0.18 0.025      91.46    0.100     79.00        0.635 0.95 1.00
           31    469       2.61 0.187      18.29    0.100     79.00        0.133 0.95 1.00
           31    470       1.53 0.033      91.46    0.150     69.00        0.745 0.95 1.00
           31    471      21.96 0.241      15.24    0.150     69.00        0.145 0.95 1.00
           31    472      13.32 0.221      15.24    0.150     84.00        0.147 0.95 1.00
           31    473       0.63 0.039      91.46    0.150     84.00        0.708 0.95 1.00
           31    474       0.09 0.021      91.46    0.140     77.00        0.818 0.95 1.00
           31    475       1.62 0.225      15.24    0.140     77.00        0.138 0.95 1.00
           31    476      33.12 0.245      15.24    0.140     87.00        0.141 0.95 1.00
           31    477       4.59 0.029      91.46    0.140     87.00        0.744 0.95 1.00
           31    478      16.65 0.241      15.24    0.140     86.00        0.138 0.95 1.00
           31    479       0.90 0.031      91.46    0.140     86.00        0.728 0.95 1.00
           31    480      79.21 0.214      15.24    0.140     94.00        0.155 0.95 1.00
           31    481       6.30 0.031      91.46    0.140     94.00        0.730 0.95 1.00
           31    482      21.96 0.032      91.46    0.100     55.00        0.594 0.95 1.00
           31    483    2770.16 0.328       9.15    0.100     55.00        0.431 0.95 1.00
           31    484     147.97 0.033      91.46    0.100     77.00        0.611 0.95 1.00
           31    485    8467.00 0.299       9.15    0.100     77.00        1.025 0.95 1.00
           32    486      17.37 0.198      18.29    0.010     92.00        0.037 0.95 1.00
           32    487       1.62 0.029      91.46    0.010     92.00        0.153 0.95 1.00
           32    488       1.71 0.032      91.46    0.100     59.00        0.590 0.95 1.00
           32    489      10.44 0.160      24.39    0.100     59.00        0.167 0.95 1.00
           32    490       0.45 0.093      60.98    0.100     79.00        0.336 0.95 1.00
           32    491       2.16 0.034      91.46    0.150     69.00        0.739 0.95 1.00
           32    492      25.74 0.252       9.15    0.150     69.00        0.108 0.95 1.00
           32    493       0.27 0.039      91.46    0.150     84.00        0.708 0.95 1.00
           32    494       1.62 0.114      60.98    0.150     84.00        0.403 0.95 1.00
           32    495       4.05 0.033      91.46    0.140     77.00        0.716 0.95 1.00
           32    496     109.99 0.379       9.15    0.140     77.00        0.109 0.95 1.00
           32    497       0.54 0.035      91.46    0.140     87.00        0.702 0.95 1.00
           32    498      92.44 0.410       9.15    0.140     87.00        0.104 0.95 1.00
           32    499      15.21 0.032      91.46    0.140     86.00        0.725 0.95 1.00
           32    500     210.62 0.259       9.15    0.140     86.00        0.137 0.95 1.00
           32    501       2.16 0.036      91.46    0.140     94.00        0.697 0.95 1.00
           32    502     103.60 0.284       9.15    0.140     94.00        0.116 0.95 1.00
           32    503       9.36 0.032      91.46    0.100     55.00        0.592 0.95 1.00
           32    504     864.61 0.413       9.15    0.100     55.00        0.208 0.95 1.00
           32    505       7.92 0.034      91.46    0.100     77.00        0.581 0.95 1.00
           32    506    1708.88 0.408       9.15    0.100     77.00        0.322 0.95 1.00
           33    507       0.45 0.212      15.24    0.010     92.00        0.029 0.95 1.00
           33    508       0.81 0.127      24.39    0.010     92.00        0.045 0.95 1.00
           33    509       8.01 0.312       9.15    0.100     79.00        0.076 0.95 1.00
           33    510       0.18 0.024      91.46    0.100     79.00        0.642 0.95 1.00
           33    511       0.72 0.028      91.46    0.100     79.00        0.614 0.95 1.00
           33    512      20.07 0.259       9.15    0.100     79.00        0.083 0.95 1.00
           33    513      15.75 0.289       9.15    0.150     84.00        0.101 0.95 1.00
           33    514       0.72 0.033      91.46    0.150     84.00        0.745 0.95 1.00
           33    515       0.54 0.231      15.24    0.150     69.00        0.142 0.95 1.00
           33    516       3.51 0.029      91.46    0.150     84.00        0.775 0.95 1.00
           33    517      66.60 0.209      15.24    0.150     84.00        0.157 0.95 1.00
           33    518     185.96 0.371       9.15    0.140     87.00        0.113 0.95 1.00
           33    519       0.90 0.031      91.46    0.140     87.00        0.728 0.95 1.00
           33    520       0.27 0.472       9.15    0.140     77.00        0.081 0.95 1.00
           33    521       6.03 0.031      91.46    0.140     87.00        0.729 0.95 1.00
           33    522     666.86 0.360       9.15    0.140     87.00        0.168 0.95 1.00
           33    523       0.09 0.232      15.24    0.140     86.00        0.136 0.95 1.00
           33    524       0.54 0.034      91.46    0.140     94.00        0.708 0.95 1.00
           33    525      23.31 0.256       9.15    0.140     94.00        0.101 0.95 1.00
           33    526       8.55 0.031      91.46    0.100     77.00        0.597 0.95 1.00
           33    527    1547.41 0.411       9.15    0.100     77.00        0.237 0.95 1.00
           33    528       3.87 0.525       9.15    0.100     55.00        0.065 0.95 1.00
           33    529    7871.42 0.415       9.15    0.100     77.00        0.766 0.95 1.00
           33    530      59.40 0.034      91.46    0.100     77.00        0.588 0.95 1.00
           34    531       0.63 0.304       9.15    0.010     92.00        0.019 0.95 1.00
           34    532       0.63 0.169      18.29    0.010     92.00        0.034 0.95 1.00
           34    533      30.24 0.350       9.15    0.100     59.00        0.079 0.95 1.00
           34    534       0.36 0.044      91.46    0.100     59.00        0.536 0.95 1.00
           34    535      41.49 0.237      15.24    0.100     79.00        0.120 0.95 1.00
           34    536       0.63 0.032      91.46    0.100     79.00        0.589 0.95 1.00
           34    537      26.10 0.258       9.15    0.150     69.00        0.107 0.95 1.00
           34    538       2.70 0.033      91.46    0.150     69.00        0.745 0.95 1.00
           34    539      11.43 0.276       9.15    0.150     84.00        0.102 0.95 1.00
           34    540       0.54 0.032      91.46    0.150     84.00        0.752 0.95 1.00
           34    541       0.72 0.026      91.46    0.140     77.00        0.768 0.95 1.00
           34    542      70.57 0.330       9.15    0.140     77.00        0.105 0.95 1.00
           34    543     172.00 0.313       9.15    0.140     87.00        0.124 0.95 1.00
           34    544       1.44 0.032      91.46    0.140     87.00        0.722 0.95 1.00
           34    545      81.28 0.281       9.15    0.140     86.00        0.111 0.95 1.00
           34    546       1.08 0.036      91.46    0.140     86.00        0.696 0.95 1.00
           34    547      97.93 0.229      15.24    0.140     94.00        0.156 0.95 1.00
           34    548       1.98 0.034      91.46    0.140     94.00        0.709 0.95 1.00
           34    549    2437.85 0.445       9.15    0.100     55.00        0.400 0.95 1.00
           34    550      13.32 0.034      91.46    0.100     55.00        0.582 0.95 1.00
           34    551    5391.53 0.425       9.15    0.100     77.00        0.735 0.95 1.00
           34    552      24.93 0.033      91.46    0.100     77.00        0.590 0.95 1.00
           35    553       0.27 0.229      15.24    0.010     92.00        0.028 0.95 1.00
           35    554       0.81 0.034      91.46    0.010     92.00        0.146 0.95 1.00
           35    555      18.99 0.241      15.24    0.010     92.00        0.031 0.95 1.00
           35    556       0.09 0.024      91.46    0.100     79.00        0.642 0.95 1.00
           35    557       0.99 0.264       9.15    0.100     79.00        0.079 0.95 1.00
           35    558       0.54 0.322       9.15    0.150     69.00        0.095 0.95 1.00
           35    559       1.80 0.037      91.46    0.150     84.00        0.720 0.95 1.00
           35    560      33.30 0.264       9.15    0.150     84.00        0.106 0.95 1.00
           35    561       4.23 0.886       9.15    0.140     77.00        0.068 0.95 1.00
           35    562       0.09 0.021      91.46    0.140     77.00        0.818 0.95 1.00
           35    563     251.39 0.465       9.15    0.140     87.00        0.113 0.95 1.00
           35    564       0.90 0.043      91.46    0.140     87.00        0.660 0.95 1.00
           35    565       1.35 0.289       9.15    0.140     86.00        0.094 0.95 1.00
           35    566       0.18 0.029      91.46    0.140     94.00        0.743 0.95 1.00
           35    567      21.51 0.410       9.15    0.140     94.00        0.088 0.95 1.00
           35    568     171.64 0.521       9.15    0.100     55.00        0.087 0.95 1.00
           35    569       0.45 0.033      91.46    0.100     55.00        0.584 0.95 1.00
           35    570    5318.36 0.462       9.15    0.100     77.00        0.522 0.95 1.00
           35    571      18.99 0.034      91.46    0.100     77.00        0.582 0.95 1.00
           36    572       0.09 0.029      91.46    0.010     92.00        0.153 0.95 1.00
           36    573       0.72 0.184      18.29    0.010     92.00        0.034 0.95 1.00
           36    574       0.09 0.126      24.39    0.100     79.00        0.177 0.95 1.00
           36    575       1.26 0.326       9.15    0.150     84.00        0.095 0.95 1.00
           36    576       7.38 0.378       9.15    0.140     87.00        0.090 0.95 1.00
           36    577       0.45 0.340       9.15    0.140     94.00        0.089 0.95 1.00
           36    578       2.88 0.034      91.46    0.100     77.00        0.580 0.95 1.00
           36    579     735.72 0.409       9.15    0.100     77.00        0.255 0.95 1.00
           36    580      12.96 0.034      91.46    0.100     77.00        0.584 0.95 1.00
           36    581    1914.10 0.414       9.15    0.100     77.00        0.499 0.95 1.00
           37    582       0.90 0.181      18.29    0.010     92.00        0.034 0.95 1.00
           37    583       0.18 0.035      91.46    0.010     92.00        0.144 0.95 1.00
           37    584       3.87 0.210      15.24    0.010     92.00        0.030 0.95 1.00
           37    585       0.27 0.033      91.46    0.010     92.00        0.147 0.95 1.00
           37    586       5.31 0.217      15.24    0.150     69.00        0.147 0.95 1.00
           37    587       0.45 0.030      91.46    0.150     84.00        0.766 0.95 1.00
           37    588      12.51 0.240      15.24    0.150     84.00        0.145 0.95 1.00
           37    589       1.98 0.222      15.24    0.140     87.00        0.139 0.95 1.00
           37    590       0.09 0.048      91.46    0.140     77.00        0.639 0.95 1.00
           37    591      26.64 0.379       9.15    0.140     77.00        0.095 0.95 1.00
           37    592      31.41 0.585       9.15    0.140     87.00        0.086 0.95 1.00
           37    593       3.06 0.197      18.29    0.140     94.00        0.161 0.95 1.00
           37    594      26.64 0.298       9.15    0.140     86.00        0.102 0.95 1.00
           37    595       0.18 0.028      91.46    0.140     86.00        0.751 0.95 1.00
           37    596       2.43 0.269       9.15    0.140     94.00        0.097 0.95 1.00
           37    597     105.49 0.396       9.15    0.100     77.00        0.100 0.95 1.00
           37    598       0.09 0.013     121.95    0.100     77.00        0.918 0.95 1.00
           37    599       2.61 0.035      91.46    0.100     55.00        0.575 0.95 1.00
           37    600     722.58 0.428       9.15    0.100     55.00        0.233 0.95 1.00
           37    601       3.96 0.033      91.46    0.100     77.00        0.586 0.95 1.00
           37    602     544.72 0.421       9.15    0.100     77.00        0.197 0.95 1.00
           38    603       0.36 0.193      18.29    0.100     79.00        0.131 0.95 1.00
           38    604       1.44 0.030      91.46    0.150     84.00        0.767 0.95 1.00
           38    605       6.84 0.202      15.24    0.150     84.00        0.149 0.95 1.00
           38    606      28.80 0.235      15.24    0.150     84.00        0.145 0.95 1.00
           38    607       0.27 0.045      91.46    0.150     84.00        0.679 0.95 1.00
           38    608       0.36 0.032      91.46    0.140     87.00        0.721 0.95 1.00
           38    609      10.08 0.289       9.15    0.140     87.00        0.095 0.95 1.00
           38    610      37.35 0.271       9.15    0.140     87.00        0.101 0.95 1.00
           38    611       0.18 0.047      91.46    0.140     87.00        0.643 0.95 1.00
           38    612    1509.24 0.453       9.15    0.100     77.00        0.205 0.95 1.00
           38    613       6.39 0.033      91.46    0.100     77.00        0.585 0.95 1.00
           38    614    3160.43 0.426       9.15    0.100     77.00        0.331 0.95 1.00
           38    615      15.21 0.035      91.46    0.100     77.00        0.576 0.95 1.00
           39    616       0.18 1.000       9.15    0.010     92.00        0.013 0.95 1.00
           39    617       1.89 0.144      24.39    0.010     92.00        0.043 0.95 1.00
           39    618       0.09 0.048      91.46    0.010     92.00        0.131 0.95 1.00
           39    619       1.71 0.037      91.46    0.010     92.00        0.142 0.95 1.00
           39    620      10.53 0.245      15.24    0.010     92.00        0.029 0.95 1.00
           39    621       0.18 0.089      60.98    0.100     59.00        0.340 0.95 1.00
           39    622       2.88 0.033      91.46    0.100     79.00        0.584 0.95 1.00
           39    623      34.02 0.288       9.15    0.100     79.00        0.082 0.95 1.00
           39    624       0.36 0.032      91.46    0.150     84.00        0.752 0.95 1.00
           39    625      17.64 0.447       9.15    0.150     84.00        0.089 0.95 1.00
           39    626       4.32 0.110      60.98    0.150     69.00        0.408 0.95 1.00
           39    627       3.60 0.027      91.46    0.150     69.00        0.792 0.95 1.00
           39    628      21.33 0.032      91.46    0.150     84.00        0.755 0.95 1.00
           39    629     150.85 0.208      15.24    0.150     84.00        0.166 0.95 1.00
           39    630       0.36 0.036      91.46    0.140     87.00        0.696 0.95 1.00
           39    631      19.89 0.259       9.15    0.140     87.00        0.100 0.95 1.00
           39    632       1.62 0.595       9.15    0.140     77.00        0.076 0.95 1.00
           39    633     309.09 0.339       9.15    0.140     87.00        0.125 0.95 1.00
           39    634       3.78 0.038      91.46    0.140     87.00        0.686 0.95 1.00
           39    635       4.68 0.196      18.29    0.140     94.00        0.160 0.95 1.00
           39    636       0.27 0.028      91.46    0.140     94.00        0.751 0.95 1.00
           39    637       1.71 0.030      91.46    0.140     86.00        0.736 0.95 1.00
           39    638       5.58 0.173      18.29    0.140     86.00        0.167 0.95 1.00
           39    639      11.97 0.034      91.46    0.140     94.00        0.710 0.95 1.00
           39    640     198.29 0.278       9.15    0.140     94.00        0.119 0.95 1.00
           39    641    3286.80 0.470       9.15    0.100     77.00        0.352 0.95 1.00
           39    642       8.28 0.033      91.46    0.100     77.00        0.585 0.95 1.00
           39    643       0.45 0.037      91.46    0.100     55.00        0.564 0.95 1.00
           39    644      14.40 0.450       9.15    0.100     55.00        0.069 0.95 1.00
           39    645    5382.26 0.446       9.15    0.100     77.00        0.507 0.95 1.00
           39    646      20.43 0.032      91.46    0.100     77.00        0.593 0.95 1.00
           40    647       1.89 0.034      91.46    0.010     92.00        0.146 0.95 1.00
           40    648      11.07 0.169      18.29    0.010     92.00        0.038 0.95 1.00
           40    649       0.36 0.024      91.46    0.010     92.00        0.162 0.95 1.00
           40    650       1.53 0.134      24.39    0.010     92.00        0.044 0.95 1.00
           40    651       7.47 0.033      91.46    0.100     59.00        0.587 0.95 1.00
           40    652      52.83 0.241      15.24    0.100     59.00        0.125 0.95 1.00
           40    653       5.22 0.028      91.46    0.100     79.00        0.615 0.95 1.00
           40    654      11.97 0.166      18.29    0.100     79.00        0.141 0.95 1.00
           40    655     102.52 0.194      18.29    0.150     69.00        0.194 0.95 1.00
           40    656      28.98 0.029      91.46    0.150     69.00        0.783 0.95 1.00
           40    657      17.73 0.032      91.46    0.150     84.00        0.757 0.95 1.00
           40    658      86.05 0.145      24.39    0.150     84.00        0.239 0.95 1.00
           40    659       1.26 0.036      91.46    0.140     77.00        0.697 0.95 1.00
           40    660      72.19 0.302       9.15    0.140     77.00        0.112 0.95 1.00
           40    661       6.84 0.031      91.46    0.140     87.00        0.730 0.95 1.00
           40    662      65.80 0.229      15.24    0.140     87.00        0.155 0.95 1.00
           40    663      24.66 0.032      91.46    0.140     86.00        0.729 0.95 1.00
           40    664     442.84 0.254       9.15    0.140     86.00        0.194 0.95 1.00
           40    665     219.53 0.211      15.24    0.140     94.00        0.192 0.95 1.00
           40    666      28.08 0.033      91.46    0.140     94.00        0.723 0.95 1.00
           40    667       4.77 0.031      91.46    0.100     55.00        0.597 0.95 1.00
           40    668    1411.41 0.435       9.15    0.100     55.00        0.334 0.95 1.00
           40    669       2.43 0.034      91.46    0.100     77.00        0.580 0.95 1.00
           40    670     613.67 0.423       9.15    0.100     77.00        0.197 0.95 1.00
           41    671       0.09 0.097      60.98    0.010     92.00        0.083 0.95 1.00
           41    672       0.45 0.071      60.98    0.100     79.00        0.364 0.95 1.00
           41    673       0.18 0.045      91.46    0.100     79.00        0.532 0.95 1.00
           41    674       6.48 0.352       9.15    0.150     84.00        0.095 0.95 1.00
           41    675       0.81 0.033      91.46    0.150     84.00        0.745 0.95 1.00
           41    676      19.44 0.342       9.15    0.140     87.00        0.096 0.95 1.00
           41    677       0.36 0.021      91.46    0.140     87.00        0.818 0.95 1.00
           41    678      11.34 0.289       9.15    0.140     94.00        0.098 0.95 1.00
           41    679       0.90 0.028      91.46    0.140     94.00        0.751 0.95 1.00
           41    680    1173.16 0.392       9.15    0.100     77.00        0.341 0.95 1.00
           41    681       6.39 0.032      91.46    0.100     77.00        0.592 0.95 1.00
           41    682      12.06 0.034      91.46    0.100     77.00        0.584 0.95 1.00
           41    683    2898.33 0.414       9.15    0.100     77.00        0.668 0.95 1.00
           42    684       0.27 0.023      91.46    0.010     92.00        0.164 0.95 1.00
           42    685      16.38 0.105      60.98    0.100     79.00        0.327 0.95 1.00
           42    686       6.75 0.035      91.46    0.100     79.00        0.575 0.95 1.00
           42    687      45.45 0.031      91.46    0.150     84.00        0.767 0.95 1.00
           42    688     157.60 0.193      18.29    0.150     84.00        0.191 0.95 1.00
           42    689      83.35 0.309       9.15    0.140     87.00        0.105 0.95 1.00
           42    690       2.25 0.033      91.46    0.140     87.00        0.715 0.95 1.00
           42    691     220.61 0.224      15.24    0.140     94.00        0.169 0.95 1.00
           42    692      13.77 0.034      91.46    0.140     94.00        0.711 0.95 1.00
           42    693     384.51 0.535       9.15    0.100     77.00        0.115 0.95 1.00
           42    694       0.09 0.042      91.46    0.100     77.00        0.543 0.95 1.00
           42    695      11.25 0.514       9.15    0.100     55.00        0.067 0.95 1.00
           42    696    5522.58 0.432       9.15    0.100     77.00        0.601 0.95 1.00
           42    697      21.69 0.032      91.46    0.100     77.00        0.593 0.95 1.00
           43    698       0.99 1.000       9.15    0.010     92.00        0.013 0.95 1.00
           43    699      28.44 0.223      15.24    0.100     79.00        0.117 0.95 1.00
           43    700       1.89 0.040      91.46    0.100     79.00        0.551 0.95 1.00
           43    701       0.09 0.042      91.46    0.150     84.00        0.693 0.95 1.00
           43    702       8.91 0.732       9.15    0.150     84.00        0.075 0.95 1.00
           43    703      43.56 0.030      91.46    0.150     84.00        0.772 0.95 1.00
           43    704     984.95 0.261       9.15    0.150     84.00        0.194 0.95 1.00
           43    705      23.76 0.338       9.15    0.140     87.00        0.093 0.95 1.00
           43    706       5.22 0.033      91.46    0.140     87.00        0.715 0.95 1.00
           43    707    1017.44 0.346       9.15    0.140     87.00        0.185 0.95 1.00
           43    708      17.28 0.033      91.46    0.100     77.00        0.587 0.95 1.00
           43    709    3776.62 0.468       9.15    0.100     77.00        0.370 0.95 1.00
           43    710      19.08 0.033      91.46    0.100     77.00        0.587 0.95 1.00
           43    711    5772.71 0.411       9.15    0.100     77.00        0.509 0.95 1.00

         HRU CN Input Summary Table:
          Sub   HRU   Area(ha)  LULC      Soil    CN1    CN2    CN3  Wilting Point (mm H2O)  Field Capacity (mm H2O)  Saturation (mm H2O)
            1      1       0.09  WATR  FAOAO      81.7   92.0   97.1                   181.5                     70.0                328.0
            1      2       3.42  WATR  FAOAO      81.7   92.0   97.1                   181.5                     70.0                328.0
            1      3       0.90  BERM  FAOAO      61.7   79.0   91.0                   181.5                     70.0                328.0
            1      4       1.71  BERM  FAOAO      61.7   79.0   91.0                   181.5                     70.0                328.0
            1      5       1.71  AGRL  FAOAO      73.0   87.0   95.0                   181.5                     70.0                328.0
            1      6       0.27  AGRL  FAOAO      73.0   87.0   95.0                   181.5                     70.0                328.0
            1      7       1.17  BARR  FAOAO      85.8   94.0   97.9                   181.5                     70.0                328.0
            1      8      10.44  BARR  FAOAO      85.8   94.0   97.9                   181.5                     70.0                328.0
            1      9       0.27  BARR  XAFERRIT   71.4   86.0   94.5                    81.8                     70.0                427.6
            1     10       0.09  FRSE  FAOAO      59.3   77.0   89.9                   181.5                     70.0                328.0
            1     11       2.25  FRSE  FAOAO      59.3   77.0   89.9                   181.5                     70.0                328.0
            1     12       0.63  FRSE  XAFERRIT   35.3   55.0   74.5                    81.8                     70.0                427.6
            2     13       0.63  WATR  FAOAO      81.7   92.0   97.1                   181.5                     70.0                328.0
            2     14       0.36  WATR  FAOAO      81.7   92.0   97.1                   181.5                     70.0                328.0
            2     15       2.07  BERM  FAOAO      61.7   79.0   91.0                   181.5                     70.0                328.0
            2     16      26.46  BERM  FAOAO      61.7   79.0   91.0                   181.5                     70.0                328.0
            2     17      13.77  BERM  XAFERRIT   39.4   59.0   77.7                    81.8                     70.0                427.6
            2     18       0.36  BERM  XAFERRIT   39.4   59.0   77.7                    81.8                     70.0                427.6
            2     19      27.72  PAST  FAOAO      68.4   84.0   93.5                   181.5                     70.0                328.0
            2     20       0.99  PAST  FAOAO      68.4   84.0   93.5                   181.5                     70.0                328.0
            2     21       9.72  PAST  XAFERRIT   50.1   69.0   85.0                    81.8                     70.0                427.6
            2     22       0.90  PAST  XAFERRIT   50.1   69.0   85.0                    81.8                     70.0                427.6
            2     23       0.45  AGRL  FAOAO      73.0   87.0   95.0                   181.5                     70.0                328.0
            2     24       3.51  AGRL  FAOAO      73.0   87.0   95.0                   181.5                     70.0                328.0
            2     25      11.70  AGRL  XAFERRIT   59.3   77.0   89.9                    81.8                     70.0                427.6
            2     26     134.02  BARR  FAOAO      85.8   94.0   97.9                   181.5                     70.0                328.0
            2     27       1.53  BARR  FAOAO      85.8   94.0   97.9                   181.5                     70.0                328.0
            2     28     116.65  BARR  XAFERRIT   71.4   86.0   94.5                    81.8                     70.0                427.6
            2     29       0.45  BARR  XAFERRIT   71.4   86.0   94.5                    81.8                     70.0                427.6
            2     30    1688.27  FRSE  FAOAO      59.3   77.0   89.9                   181.5                     70.0                328.0
            2     31      25.20  FRSE  FAOAO      59.3   77.0   89.9                   181.5                     70.0                328.0
            2     32      45.63  FRSE  XAFERRIT   35.3   55.0   74.5                    81.8                     70.0                427.6
            2     33    3616.41  FRSE  XAFERRIT   35.3   55.0   74.5                    81.8                     70.0                427.6
            3     34       7.92  WATR  FAOAO      81.7   92.0   97.1                   181.5                     70.0                328.0
            3     35      30.06  WATR  FAOAO      81.7   92.0   97.1                   181.5                     70.0                328.0
            3     36       3.51  BERM  FAOAO      61.7   79.0   91.0                   181.5                     70.0                328.0
            3     37       8.19  BERM  FAOAO      61.7   79.0   91.0                   181.5                     70.0                328.0
            3     38       4.86  PAST  FAOAO      68.4   84.0   93.5                   181.5                     70.0                328.0
            3     39       1.98  AGRL  FAOAO      73.0   87.0   95.0                   181.5                     70.0                328.0
            3     40      12.15  AGRL  FAOAO      73.0   87.0   95.0                   181.5                     70.0                328.0
            3     41      11.25  BARR  FAOAO      85.8   94.0   97.9                   181.5                     70.0                328.0
            3     42     114.67  BARR  FAOAO      85.8   94.0   97.9                   181.5                     70.0                328.0
            3     43      12.33  BARR  XAFERRIT   71.4   86.0   94.5                    81.8                     70.0                427.6
            3     44       0.09  BARR  XAFERRIT   71.4   86.0   94.5                    81.8                     70.0                427.6
            3     45      41.04  FRSE  FAOAO      59.3   77.0   89.9                   181.5                     70.0                328.0
            3     46       0.09  FRSE  FAOAO      59.3   77.0   89.9                   181.5                     70.0                328.0
            3     47       3.78  FRSE  XAFERRIT   35.3   55.0   74.5                    81.8                     70.0                427.6
            4     48       2.52  WATR  FAOAO      81.7   92.0   97.1                   181.5                     70.0                328.0
            4     49       2.52  WATR  FAOAO      81.7   92.0   97.1                   181.5                     70.0                328.0
            4     50       1.89  WATR  XAFERRIT   81.7   92.0   97.1                    81.8                     70.0                427.6
            4     51       0.54  WATR  XAFERRIT   81.7   92.0   97.1                    81.8                     70.0                427.6
            4     52       8.01  BERM  XAFERRIT   39.4   59.0   77.7                    81.8                     70.0                427.6
            4     53      31.41  BERM  XAFERRIT   39.4   59.0   77.7                    81.8                     70.0                427.6
            4     54       1.89  PAST  XAFERRIT   50.1   69.0   85.0                    81.8                     70.0                427.6
            4     55       2.52  PAST  XAFERRIT   50.1   69.0   85.0                    81.8                     70.0                427.6
            4     56       0.72  AGRL  FAOAO      73.0   87.0   95.0                   181.5                     70.0                328.0
            4     57      19.89  AGRL  XAFERRIT   59.3   77.0   89.9                    81.8                     70.0                427.6
            4     58       0.18  AGRL  XAFERRIT   59.3   77.0   89.9                    81.8                     70.0                427.6
            4     59       0.18  BARR  FAOAO      85.8   94.0   97.9                   181.5                     70.0                328.0
            4     60      24.21  BARR  FAOAO      85.8   94.0   97.9                   181.5                     70.0                328.0
            4     61     535.45  BARR  XAFERRIT   71.4   86.0   94.5                    81.8                     70.0                427.6
            4     62      39.51  BARR  XAFERRIT   71.4   86.0   94.5                    81.8                     70.0                427.6
            4     63       0.54  FRSE  FAOAO      59.3   77.0   89.9                   181.5                     70.0                328.0
            4     64      44.19  FRSE  XAFERRIT   35.3   55.0   74.5                    81.8                     70.0                427.6
            4     65    1963.60  FRSE  XAFERRIT   35.3   55.0   74.5                    81.8                     70.0                427.6
            5     66      17.73  WATR  FAOAO      81.7   92.0   97.1                   181.5                     70.0                328.0
            5     67      90.19  WATR  FAOAO      81.7   92.0   97.1                   181.5                     70.0                328.0
            5     68      49.14  BERM  FAOAO      61.7   79.0   91.0                   181.5                     70.0                328.0
            5     69       4.77  BERM  FAOAO      61.7   79.0   91.0                   181.5                     70.0                328.0
            5     70       3.96  BERM  XAFERRIT   39.4   59.0   77.7                    81.8                     70.0                427.6
            5     71      11.97  PAST  FAOAO      68.4   84.0   93.5                   181.5                     70.0                328.0
            5     72       0.90  PAST  FAOAO      68.4   84.0   93.5                   181.5                     70.0                328.0
            5     73       0.63  PAST  XAFERRIT   50.1   69.0   85.0                    81.8                     70.0                427.6
            5     74     119.71  AGRL  FAOAO      73.0   87.0   95.0                   181.5                     70.0                328.0
            5     75       3.87  AGRL  FAOAO      73.0   87.0   95.0                   181.5                     70.0                328.0
            5     76       6.48  AGRL  XAFERRIT   59.3   77.0   89.9                    81.8                     70.0                427.6
[...]
           37    586       5.31       100.000         0.020   1000.000   0.020      750.000  0.050    0.000     0.000
           37    587       0.45       100.000         0.020   1000.000   0.020      750.000  0.050    0.000     0.000
           37    588      12.51       100.000         0.020   1000.000   0.020      750.000  0.050    0.000     0.000
           37    589       1.98       100.000         0.020   1000.000   0.020      750.000  0.050    0.000     0.000
           37    590       0.09       100.000         0.020   1000.000   0.020      750.000  0.050    0.000     0.000
           37    591      26.64       100.000         0.020   1000.000   0.020      750.000  0.050    0.000     0.000
           37    592      31.41       100.000         0.020   1000.000   0.020      750.000  0.050    0.000     0.000
           37    593       3.06       100.000         0.020   1000.000   0.020      750.000  0.050    0.000     0.000
           37    594      26.64       100.000         0.020   1000.000   0.020      750.000  0.050    0.000     0.000
           37    595       0.18       100.000         0.020   1000.000   0.020      750.000  0.050    0.000     0.000
           37    596       2.43       100.000         0.020   1000.000   0.020      750.000  0.050    0.000     0.000
           37    597     105.49       100.000         0.020   1000.000   0.020      750.000  0.050    0.000     0.000
           37    598       0.09       100.000         0.020   1000.000   0.020      750.000  0.050    0.000     0.000
           37    599       2.61       100.000         0.020   1000.000   0.020      750.000  0.050    0.000     0.000
           37    600     722.58       100.000         0.020   1000.000   0.020      750.000  0.050    0.000     0.000
           37    601       3.96       100.000         0.020   1000.000   0.020      750.000  0.050    0.000     0.000
           37    602     544.72       100.000         0.020   1000.000   0.020      750.000  0.050    0.000     0.000
           38    603       0.36       100.000         0.020   1000.000   0.020      750.000  0.050    0.000     0.000
           38    604       1.44       100.000         0.020   1000.000   0.020      750.000  0.050    0.000     0.000
           38    605       6.84       100.000         0.020   1000.000   0.020      750.000  0.050    0.000     0.000
           38    606      28.80       100.000         0.020   1000.000   0.020      750.000  0.050    0.000     0.000
           38    607       0.27       100.000         0.020   1000.000   0.020      750.000  0.050    0.000     0.000
           38    608       0.36       100.000         0.020   1000.000   0.020      750.000  0.050    0.000     0.000
           38    609      10.08       100.000         0.020   1000.000   0.020      750.000  0.050    0.000     0.000
           38    610      37.35       100.000         0.020   1000.000   0.020      750.000  0.050    0.000     0.000
           38    611       0.18       100.000         0.020   1000.000   0.020      750.000  0.050    0.000     0.000
           38    612    1509.24       100.000         0.020   1000.000   0.020      750.000  0.050    0.000     0.000
           38    613       6.39       100.000         0.020   1000.000   0.020      750.000  0.050    0.000     0.000
           38    614    3160.43       100.000         0.020   1000.000   0.020      750.000  0.050    0.000     0.000
           38    615      15.21       100.000         0.020   1000.000   0.020      750.000  0.050    0.000     0.000
           39    616       0.18       100.000         0.020   1000.000   0.020      750.000  0.050    0.000     0.000
           39    617       1.89       100.000         0.020   1000.000   0.020      750.000  0.050    0.000     0.000
           39    618       0.09       100.000         0.020   1000.000   0.020      750.000  0.050    0.000     0.000
           39    619       1.71       100.000         0.020   1000.000   0.020      750.000  0.050    0.000     0.000
           39    620      10.53       100.000         0.020   1000.000   0.020      750.000  0.050    0.000     0.000
           39    621       0.18       100.000         0.020   1000.000   0.020      750.000  0.050    0.000     0.000
           39    622       2.88       100.000         0.020   1000.000   0.020      750.000  0.050    0.000     0.000
           39    623      34.02       100.000         0.020   1000.000   0.020      750.000  0.050    0.000     0.000
           39    624       0.36       100.000         0.020   1000.000   0.020      750.000  0.050    0.000     0.000
           39    625      17.64       100.000         0.020   1000.000   0.020      750.000  0.050    0.000     0.000
           39    626       4.32       100.000         0.020   1000.000   0.020      750.000  0.050    0.000     0.000
           39    627       3.60       100.000         0.020   1000.000   0.020      750.000  0.050    0.000     0.000
           39    628      21.33       100.000         0.020   1000.000   0.020      750.000  0.050    0.000     0.000
           39    629     150.85       100.000         0.020   1000.000   0.020      750.000  0.050    0.000     0.000
           39    630       0.36       100.000         0.020   1000.000   0.020      750.000  0.050    0.000     0.000
           39    631      19.89       100.000         0.020   1000.000   0.020      750.000  0.050    0.000     0.000
           39    632       1.62       100.000         0.020   1000.000   0.020      750.000  0.050    0.000     0.000
           39    633     309.09       100.000         0.020   1000.000   0.020      750.000  0.050    0.000     0.000
           39    634       3.78       100.000         0.020   1000.000   0.020      750.000  0.050    0.000     0.000
           39    635       4.68       100.000         0.020   1000.000   0.020      750.000  0.050    0.000     0.000
           39    636       0.27       100.000         0.020   1000.000   0.020      750.000  0.050    0.000     0.000
           39    637       1.71       100.000         0.020   1000.000   0.020      750.000  0.050    0.000     0.000
           39    638       5.58       100.000         0.020   1000.000   0.020      750.000  0.050    0.000     0.000
           39    639      11.97       100.000         0.020   1000.000   0.020      750.000  0.050    0.000     0.000
           39    640     198.29       100.000         0.020   1000.000   0.020      750.000  0.050    0.000     0.000
           39    641    3286.80       100.000         0.020   1000.000   0.020      750.000  0.050    0.000     0.000
           39    642       8.28       100.000         0.020   1000.000   0.020      750.000  0.050    0.000     0.000
           39    643       0.45       100.000         0.020   1000.000   0.020      750.000  0.050    0.000     0.000
           39    644      14.40       100.000         0.020   1000.000   0.020      750.000  0.050    0.000     0.000
           39    645    5382.26       100.000         0.020   1000.000   0.020      750.000  0.050    0.000     0.000
           39    646      20.43       100.000         0.020   1000.000   0.020      750.000  0.050    0.000     0.000
           40    647       1.89       100.000         0.020   1000.000   0.020      750.000  0.050    0.000     0.000
           40    648      11.07       100.000         0.020   1000.000   0.020      750.000  0.050    0.000     0.000
           40    649       0.36       100.000         0.020   1000.000   0.020      750.000  0.050    0.000     0.000
           40    650       1.53       100.000         0.020   1000.000   0.020      750.000  0.050    0.000     0.000
           40    651       7.47       100.000         0.020   1000.000   0.020      750.000  0.050    0.000     0.000
           40    652      52.83       100.000         0.020   1000.000   0.020      750.000  0.050    0.000     0.000
           40    653       5.22       100.000         0.020   1000.000   0.020      750.000  0.050    0.000     0.000
           40    654      11.97       100.000         0.020   1000.000   0.020      750.000  0.050    0.000     0.000
           40    655     102.52       100.000         0.020   1000.000   0.020      750.000  0.050    0.000     0.000
           40    656      28.98       100.000         0.020   1000.000   0.020      750.000  0.050    0.000     0.000
           40    657      17.73       100.000         0.020   1000.000   0.020      750.000  0.050    0.000     0.000
           40    658      86.05       100.000         0.020   1000.000   0.020      750.000  0.050    0.000     0.000
           40    659       1.26       100.000         0.020   1000.000   0.020      750.000  0.050    0.000     0.000
           40    660      72.19       100.000         0.020   1000.000   0.020      750.000  0.050    0.000     0.000
           40    661       6.84       100.000         0.020   1000.000   0.020      750.000  0.050    0.000     0.000
           40    662      65.80       100.000         0.020   1000.000   0.020      750.000  0.050    0.000     0.000
           40    663      24.66       100.000         0.020   1000.000   0.020      750.000  0.050    0.000     0.000
           40    664     442.84       100.000         0.020   1000.000   0.020      750.000  0.050    0.000     0.000
           40    665     219.53       100.000         0.020   1000.000   0.020      750.000  0.050    0.000     0.000
           40    666      28.08       100.000         0.020   1000.000   0.020      750.000  0.050    0.000     0.000
           40    667       4.77       100.000         0.020   1000.000   0.020      750.000  0.050    0.000     0.000
           40    668    1411.41       100.000         0.020   1000.000   0.020      750.000  0.050    0.000     0.000
           40    669       2.43       100.000         0.020   1000.000   0.020      750.000  0.050    0.000     0.000
           40    670     613.67       100.000         0.020   1000.000   0.020      750.000  0.050    0.000     0.000
           41    671       0.09       100.000         0.020   1000.000   0.020      750.000  0.050    0.000     0.000
           41    672       0.45       100.000         0.020   1000.000   0.020      750.000  0.050    0.000     0.000
           41    673       0.18       100.000         0.020   1000.000   0.020      750.000  0.050    0.000     0.000
           41    674       6.48       100.000         0.020   1000.000   0.020      750.000  0.050    0.000     0.000
           41    675       0.81       100.000         0.020   1000.000   0.020      750.000  0.050    0.000     0.000
           41    676      19.44       100.000         0.020   1000.000   0.020      750.000  0.050    0.000     0.000
           41    677       0.36       100.000         0.020   1000.000   0.020      750.000  0.050    0.000     0.000
           41    678      11.34       100.000         0.020   1000.000   0.020      750.000  0.050    0.000     0.000
           41    679       0.90       100.000         0.020   1000.000   0.020      750.000  0.050    0.000     0.000
           41    680    1173.16       100.000         0.020   1000.000   0.020      750.000  0.050    0.000     0.000
           41    681       6.39       100.000         0.020   1000.000   0.020      750.000  0.050    0.000     0.000
           41    682      12.06       100.000         0.020   1000.000   0.020      750.000  0.050    0.000     0.000
           41    683    2898.33       100.000         0.020   1000.000   0.020      750.000  0.050    0.000     0.000
           42    684       0.27       100.000         0.020   1000.000   0.020      750.000  0.050    0.000     0.000
           42    685      16.38       100.000         0.020   1000.000   0.020      750.000  0.050    0.000     0.000
           42    686       6.75       100.000         0.020   1000.000   0.020      750.000  0.050    0.000     0.000
           42    687      45.45       100.000         0.020   1000.000   0.020      750.000  0.050    0.000     0.000
           42    688     157.60       100.000         0.020   1000.000   0.020      750.000  0.050    0.000     0.000
           42    689      83.35       100.000         0.020   1000.000   0.020      750.000  0.050    0.000     0.000
           42    690       2.25       100.000         0.020   1000.000   0.020      750.000  0.050    0.000     0.000
           42    691     220.61       100.000         0.020   1000.000   0.020      750.000  0.050    0.000     0.000
           42    692      13.77       100.000         0.020   1000.000   0.020      750.000  0.050    0.000     0.000
           42    693     384.51       100.000         0.020   1000.000   0.020      750.000  0.050    0.000     0.000
           42    694       0.09       100.000         0.020   1000.000   0.020      750.000  0.050    0.000     0.000
           42    695      11.25       100.000         0.020   1000.000   0.020      750.000  0.050    0.000     0.000
           42    696    5522.58       100.000         0.020   1000.000   0.020      750.000  0.050    0.000     0.000
           42    697      21.69       100.000         0.020   1000.000   0.020      750.000  0.050    0.000     0.000
           43    698       0.99       100.000         0.020   1000.000   0.020      750.000  0.050    0.000     0.000
           43    699      28.44       100.000         0.020   1000.000   0.020      750.000  0.050    0.000     0.000
           43    700       1.89       100.000         0.020   1000.000   0.020      750.000  0.050    0.000     0.000
           43    701       0.09       100.000         0.020   1000.000   0.020      750.000  0.050    0.000     0.000
           43    702       8.91       100.000         0.020   1000.000   0.020      750.000  0.050    0.000     0.000
           43    703      43.56       100.000         0.020   1000.000   0.020      750.000  0.050    0.000     0.000
           43    704     984.95       100.000         0.020   1000.000   0.020      750.000  0.050    0.000     0.000
           43    705      23.76       100.000         0.020   1000.000   0.020      750.000  0.050    0.000     0.000
           43    706       5.22       100.000         0.020   1000.000   0.020      750.000  0.050    0.000     0.000
           43    707    1017.44       100.000         0.020   1000.000   0.020      750.000  0.050    0.000     0.000
           43    708      17.28       100.000         0.020   1000.000   0.020      750.000  0.050    0.000     0.000
           43    709    3776.62       100.000         0.020   1000.000   0.020      750.000  0.050    0.000     0.000
           43    710      19.08       100.000         0.020   1000.000   0.020      750.000  0.050    0.000     0.000
           43    711    5772.71       100.000         0.020   1000.000   0.020      750.000  0.050    0.000     0.000

         Tributary/Main Channel Characteristics
              |--------------Tributary--------------------|---------------------Main---------------------------|
          Sub  Length(km) Slope Width(m) Cond(mm/hr)     N Length(km) Slope Width(m) Depth(m) Cond(mm/hr)     N
            1        0.88 0.166     0.53      0.0000 0.014       0.30 0.027   123.94     2.73      0.0000 0.014
            2       17.51 0.060    14.63      0.0000 0.014       7.81 0.019    14.63     0.66      0.0000 0.014
            3        2.53 0.023     2.25      0.0000 0.014       2.27 0.002   121.81     2.70      0.0000 0.014
            4        9.57 0.073     9.28      0.0000 0.014       0.19 0.021     9.28     0.48      0.0000 0.014
            5       12.54 0.047    12.26      0.0000 0.014      10.05 0.001   120.71     2.68      0.0000 0.014
            6        7.83 0.129     6.14      0.0000 0.014       2.66 0.001    53.10     1.55      0.0000 0.014
            7       12.98 0.060     9.19      0.0000 0.014       0.36 0.039     9.19     0.48      0.0000 0.014
            8       11.49 0.067    11.54      0.0000 0.014       0.54 0.001    11.54     0.56      0.0000 0.014
            9        6.84 0.085     5.64      0.0000 0.014       5.26 0.005    50.48     1.50      0.0000 0.014
           10       11.64 0.065     9.30      0.0000 0.014       2.26 0.029     9.30     0.48      0.0000 0.014
           11       25.75 0.024    22.37      0.0000 0.014      21.33 0.003    99.40     2.35      0.0000 0.014
           12       23.69 0.029    17.89      0.0000 0.014      16.96 0.006    47.02     1.43      0.0000 0.014
           13       12.15 0.085    11.82      0.0000 0.014       2.40 0.023    11.82     0.57      0.0000 0.014
           14        4.98 0.087     3.56      0.0000 0.014       1.83 0.005    37.96     1.24      0.0000 0.014
           15       12.93 0.064    11.16      0.0000 0.014       3.75 0.026    11.16     0.55      0.0000 0.014
           16       14.08 0.056    14.39      0.0000 0.014       7.83 0.004    93.15     2.25      0.0000 0.014
           17        9.43 0.107    10.11      0.0000 0.014       1.62 0.028    10.11     0.51      0.0000 0.014
           18       20.00 0.051    17.76      0.0000 0.014      14.24 0.009    34.45     1.16      0.0000 0.014
           19       14.09 0.076    12.40      0.0000 0.014       2.64 0.073    12.40     0.59      0.0000 0.014
           20       22.36 0.039    20.03      0.0000 0.014      13.43 0.008    89.23     2.19      0.0000 0.014
           21        7.68 0.066     5.60      0.0000 0.014       4.42 0.002    37.54     1.23      0.0000 0.014
           22       17.89 0.050    14.28      0.0000 0.014       6.89 0.019    14.28     0.65      0.0000 0.014
           23       14.39 0.053    14.87      0.0000 0.014       9.72 0.000    70.85     1.88      0.0000 0.014
           24       12.40 0.124    11.27      0.0000 0.014       2.90 0.027    11.27     0.55      0.0000 0.014
           25       17.87 0.048    15.22      0.0000 0.014      11.56 0.015    31.80     1.10      0.0000 0.014
           26       12.55 0.097     9.10      0.0000 0.014       1.55 0.012     9.10     0.48      0.0000 0.014
           27        2.50 0.109     1.72      0.0000 0.014       2.12 0.006    23.01     0.89      0.0000 0.014
           28       11.74 0.102    11.08      0.0000 0.014       2.31 0.065    11.08     0.55      0.0000 0.014
           29        6.82 0.094     4.27      0.0000 0.014       4.18 0.010    65.58     1.78      0.0000 0.014
           30       19.11 0.067    14.28      0.0000 0.014       5.77 0.023    14.28     0.65      0.0000 0.014
           31       28.75 0.048    22.36      0.0000 0.014      20.55 0.033    22.36     0.87      0.0000 0.014
           32       10.55 0.084    10.30      0.0000 0.014       6.33 0.016    62.00     1.72      0.0000 0.014
           33       23.56 0.071    21.04      0.0000 0.014      12.94 0.030    21.04     0.84      0.0000 0.014
           34       23.34 0.058    18.43      0.0000 0.014      12.78 0.030    18.43     0.77      0.0000 0.014
           35       14.16 0.108    14.81      0.0000 0.014      12.69 0.022    53.60     1.56      0.0000 0.014
           36       14.55 0.100     9.27      0.0000 0.014       1.86 0.102     9.27     0.48      0.0000 0.014
           37        8.37 0.144     6.54      0.0000 0.014       4.96 0.024    47.90     1.45      0.0000 0.014
           38       10.61 0.110    13.12      0.0000 0.014       1.76 0.021    13.12     0.61      0.0000 0.014
           39       19.20 0.075    19.85      0.0000 0.014      16.88 0.009    36.27     1.20      0.0000 0.014
           40       11.77 0.061    10.36      0.0000 0.014      10.00 0.014    24.84     0.93      0.0000 0.014
           41       18.91 0.069    12.03      0.0000 0.014       7.66 0.060    12.03     0.58      0.0000 0.014
           42       15.97 0.081    15.77      0.0000 0.014       5.84 0.017    15.77     0.69      0.0000 0.014
           43       20.80 0.063    22.46      0.0000 0.014      12.59 0.027    22.46     0.87      0.0000 0.014
