1
    SWAT May 26   VER 2020/Rev 681                                                                       0/ 0/   0      0: 0: 0

    General Input/Output section (file.cio):                                        
    12/22/2020 12:00:00 AM ARCGIS-SWAT interface AV                                 
                                                                                    
         Number of years in run:    8
         Area of watershed:     2015.410 km2
1
    SWAT May 26   VER 2020/Rev 681                                                  

    General Input/Output section (file.cio):                                        
    12/22/2020 12:00:00 AM ARCGIS-SWAT interface AV                                 
                                                                                    
Annual Summary for Watershed in year    1 of simulation

UNIT                                    PERCO    TILE                           WATER     SED     NO3     NO3     NO3     NO3        N       P       P
TIME     PREC    SURQ    LATQ     GWQ    LATE       Q     SW       ET     PET   YIELD   YIELD    SURQ    LATQ    PERC    CROP  ORGANIC SOLUBLE ORGANIC TILENO3
         (mm)    (mm)    (mm)    (mm)    (mm)    (mm)    (mm)    (mm)    (mm)    (mm)   (t/ha)  ------------------(kg nutrient/ha)-------------------- (kg/ha)
1
    SWAT May 26   VER 2020/Rev 681                                                  

    General Input/Output section (file.cio):                                        
    12/22/2020 12:00:00 AM ARCGIS-SWAT interface AV                                 
                                                                                    
Annual Summary for Watershed in year    2 of simulation

UNIT                                    PERCO    TILE                           WATER     SED     NO3     NO3     NO3     NO3        N       P       P
TIME     PREC    SURQ    LATQ     GWQ    LATE       Q     SW       ET     PET   YIELD   YIELD    SURQ    LATQ    PERC    CROP  ORGANIC SOLUBLE ORGANIC TILENO3
         (mm)    (mm)    (mm)    (mm)    (mm)    (mm)    (mm)    (mm)    (mm)    (mm)   (t/ha)  ------------------(kg nutrient/ha)-------------------- (kg/ha)
    1    0.15    0.00    0.64    2.89    0.29    0.00   63.81    0.28    0.70    3.84    0.00    0.00    0.00    0.01    0.00     0.00    0.00    0.00    0.00
    2    0.00    0.00    0.53    2.90    0.03    0.00   63.51    0.27    0.73    3.61    0.00    0.00    0.00    0.00    0.00     0.00    0.00    0.00    0.00
    3    0.00    0.00    0.43    2.92    0.00    0.00   62.79    0.73    2.09    3.49    0.00    0.00    0.00    0.00    0.00     0.00    0.00    0.00    0.00
    4    1.06    0.00    0.37    2.93    0.00    0.00   63.51    0.28    0.45    3.43    0.00    0.00    0.00    0.00    0.00     0.00    0.00    0.00    0.00
    5    0.00    0.00    0.30    2.94    0.00    0.00   63.35    0.16    0.35    3.36    0.00    0.00    0.00    0.00    0.00     0.00    0.00    0.00    0.00
    6    0.00    0.00    0.25    2.95    0.00    0.00   63.24    0.12    0.28    3.32    0.00    0.00    0.00    0.00    0.00     0.00    0.00    0.00    0.00
    7    0.00    0.00    0.20    2.96    0.00    0.00   62.97    0.27    0.66    3.28    0.00    0.00    0.00    0.00    0.00     0.00    0.00    0.00    0.00
    8    5.02    0.05    0.28    2.97    0.00    0.00   66.96    0.43    0.57    3.42    0.01    0.00    0.00    0.00    0.00     0.00    0.00    0.00    0.00
    9    0.00    0.00    0.23    2.98    0.00    0.00   66.75    0.20    0.37    3.33    0.00    0.00    0.00    0.00    0.00     0.00    0.00    0.00    0.00
   10    0.00    0.00    0.18    2.99    0.00    0.00   66.36    0.40    0.78    3.29    0.00    0.00    0.00    0.00    0.00     0.00    0.00    0.00    0.00
   11    0.02    0.00    0.15    2.99    0.00    0.00   65.89    0.50    0.98    3.26    0.00    0.00    0.00    0.00    0.00     0.00    0.00    0.00    0.00
   12    0.31    0.00    0.12    3.00    0.00    0.00   65.59    0.60    1.05    3.24    0.00    0.00    0.00    0.00    0.00     0.00    0.00    0.00    0.00
   13    0.75    0.00    0.11    3.00    0.00    0.00   66.15    0.12    0.21    3.23    0.00    0.00    0.00    0.00    0.00     0.00    0.00    0.00    0.00
   14    0.00    0.00    0.09    3.01    0.00    0.00   65.43    0.73    1.38    3.22    0.00    0.00    0.00    0.00    0.00     0.00    0.00    0.00    0.00
   15    8.21    0.43    0.42    3.01    2.39    0.00   68.00    1.13    1.39    3.88    0.02    0.00    0.00    0.06    0.00     0.01    0.00    0.00    0.00
   16    0.00    0.00    0.34    3.02    0.11    0.00   67.04    0.84    1.60    3.54    0.00    0.00    0.00    0.00    0.00     0.00    0.00    0.00    0.00
   17    0.00    0.00    0.27    3.02    0.00    0.00   65.75    1.31    2.92    3.43    0.00    0.00    0.00    0.00    0.00     0.00    0.00    0.00    0.00
   18    0.00    0.00    0.21    3.02    0.00    0.00   64.31    1.46    3.73    3.36    0.00    0.00    0.00    0.00    0.00     0.00    0.00    0.00    0.00
   19    0.00    0.00    0.17    3.02    0.00    0.00   62.86    1.47    4.33    3.32    0.00    0.00    0.00    0.00    0.00     0.00    0.00    0.00    0.00
   20    0.00    0.00    0.14    3.02    0.00    0.00   62.01    0.86    2.88    3.28    0.00    0.00    0.00    0.00    0.00     0.00    0.00    0.00    0.00
   21    0.00    0.00    0.11    3.02    0.00    0.00   61.60    0.42    1.52    3.25    0.00    0.00    0.00    0.00    0.00     0.00    0.00    0.00    0.00
   22    0.00    0.00    0.09    3.02    0.00    0.00   60.79    0.83    3.08    3.23    0.00    0.00    0.00    0.00    0.00     0.00    0.00    0.00    0.00
   23    0.04    0.00    0.07    3.02    0.00    0.00   60.51    0.33    1.25    3.21    0.00    0.00    0.00    0.00    0.00     0.00    0.00    0.00    0.00
   24    0.00    0.00    0.06    3.02    0.00    0.00   59.85    0.67    2.67    3.20    0.00    0.00    0.00    0.00    0.00     0.00    0.00    0.00    0.00
   25    0.00    0.00    0.05    3.02    0.00    0.00   59.24    0.62    2.66    3.19    0.00    0.00    0.00    0.00    0.00     0.00    0.00    0.00    0.00
   26    0.00    0.00    0.04    3.01    0.00    0.00   58.85    0.39    1.77    3.18    0.00    0.00    0.00    0.00    0.00     0.00    0.00    0.00    0.00
   27    1.76    0.04    0.05    3.01    0.00    0.00   60.07    0.36    1.01    3.22    0.01    0.00    0.00    0.00    0.00     0.01    0.00    0.00    0.00
   28    0.00    0.00    0.04    3.01    0.00    0.00   59.61    0.47    1.73    3.18    0.00    0.00    0.00    0.00    0.00     0.00    0.00    0.00    0.00
   29    0.00    0.00    0.03    3.00    0.00    0.00   58.99    0.63    2.56    3.16    0.00    0.00    0.00    0.00    0.00     0.00    0.00    0.00    0.00
   30    0.00    0.00    0.03    3.00    0.00    0.00   58.07    0.94    4.10    3.15    0.00    0.00    0.00    0.00    0.00     0.00    0.00    0.00    0.00
   31    0.00    0.00    0.02    2.99    0.00    0.00   57.27    0.82    3.85    3.14    0.00    0.00    0.00    0.00    0.00     0.00    0.00    0.00    0.00
    1   17.33    0.53    6.01   92.67    2.83    0.00   57.27   18.63   53.66  103.24    0.04    0.00    0.02    0.07    0.00     0.02    0.00    0.00    0.00
   32    0.00    0.00    0.02    2.99    0.00    0.00   56.49    0.79    3.97    3.13    0.00    0.00    0.00    0.00    0.00     0.00    0.00    0.00    0.00
   33    0.00    0.00    0.02    2.98    0.00    0.00   55.71    0.80    4.27    3.12    0.00    0.00    0.00    0.00    0.00     0.00    0.00    0.00    0.00
   34    0.00    0.00    0.01    2.98    0.00    0.00   55.11    0.62    3.48    3.11    0.00    0.00    0.00    0.00    0.00     0.00    0.00    0.00    0.00
   35    0.00    0.00    0.01    2.97    0.00    0.00   54.80    0.31    1.87    3.11    0.00    0.00    0.00    0.00    0.00     0.00    0.00    0.00    0.00
   36    0.00    0.00    0.01    2.96    0.00    0.00   54.37    0.45    2.68    3.10    0.00    0.00    0.00    0.00    0.00     0.00    0.00    0.00    0.00
   37    0.00    0.00    0.01    2.95    0.00    0.00   54.08    0.29    1.83    3.09    0.00    0.00    0.00    0.00    0.00     0.00    0.00    0.00    0.00
   38    0.00    0.00    0.01    2.95    0.00    0.00   53.99    0.09    0.60    3.08    0.00    0.00    0.00    0.00    0.00     0.00    0.00    0.00    0.00
   39    0.00    0.00    0.01    2.94    0.00    0.00   53.80    0.19    1.23    3.07    0.00    0.00    0.00    0.00    0.00     0.00    0.00    0.00    0.00
   40    0.00    0.00    0.00    2.93    0.00    0.00   53.26    0.56    3.58    3.06    0.00    0.00    0.00    0.00    0.00     0.00    0.00    0.00    0.00
   41    1.03    0.01    0.02    2.92    0.00    0.00   53.88    0.34    1.29    3.07    0.00    0.00    0.00    0.00    0.00     0.00    0.00    0.00    0.00
   42    0.00    0.00    0.01    2.91    0.00    0.00   53.69    0.19    1.06    3.05    0.00    0.00    0.00    0.00    0.00     0.00    0.00    0.00    0.00
   43    0.00    0.00    0.01    2.90    0.00    0.00   53.12    0.59    3.55    3.04    0.00    0.00    0.00    0.00    0.00     0.00    0.00    0.00    0.00
   44    0.00    0.00    0.01    2.89    0.00    0.00   52.46    0.69    4.43    3.03    0.00    0.00    0.00    0.00    0.00     0.00    0.00    0.00    0.00
   45    0.00    0.00    0.01    2.88    0.00    0.00   51.76    0.72    4.88    3.02    0.00    0.00    0.00    0.00    0.00     0.00    0.00    0.00    0.00
   46    0.00    0.00    0.01    2.87    0.00    0.00   51.24    0.54    3.84    3.00    0.00    0.00    0.00    0.00    0.00     0.00    0.00    0.00    0.00
   47    6.01    0.06    0.14    2.86    0.00    0.00   55.43    1.13    3.38    3.18    0.01    0.00    0.00    0.00    0.00     0.01    0.00    0.00    0.00
   48    0.00    0.00    0.11    2.85    0.00    0.00   54.27    1.18    4.39    3.09    0.00    0.00    0.00    0.00    0.04     0.00    0.00    0.00    0.00
   49    0.15    0.00    0.09    2.84    0.00    0.00   53.35    1.09    3.98    3.05    0.00    0.00    0.00    0.00    0.29     0.00    0.00    0.00    0.00
   50    0.55    0.00    0.07    2.83    0.00    0.00   53.08    0.80    3.11    3.03    0.00    0.00    0.00    0.00    0.31     0.00    0.00    0.00    0.00
   51    0.00    0.00    0.06    2.82    0.00    0.00   52.85    0.24    1.01    3.00    0.00    0.00    0.00    0.00    0.09     0.00    0.00    0.00    0.00
   52    0.00    0.00    0.05    2.80    0.00    0.00   52.78    0.07    0.25    2.98    0.00    0.00    0.00    0.00    0.03     0.00    0.00    0.00    0.00
   53    0.66    0.00    0.04    2.79    0.00    0.00   52.87    0.52    1.68    2.96    0.00    0.00    0.00    0.00    0.09     0.00    0.00    0.00    0.00
   54    1.90    0.00    0.07    2.78    0.00    0.00   53.08    1.56    4.79    2.97    0.00    0.00    0.00    0.00    0.32     0.00    0.00    0.00    0.00
   55    0.00    0.00    0.05    2.77    0.00    0.00   52.23    0.87    3.51    2.95    0.00    0.00    0.00    0.00    0.32     0.00    0.00    0.00    0.00
   56    0.00    0.00    0.04    2.76    0.00    0.00   51.44    0.80    3.56    2.92    0.00    0.00    0.00    0.00    0.35     0.00    0.00    0.00    0.00
   57    0.00    0.00    0.03    2.74    0.00    0.00   50.66    0.80    4.14    2.90    0.00    0.00    0.00    0.00    0.41     0.00    0.00    0.00    0.00
   58    0.00    0.00    0.03    2.73    0.00    0.00   49.95    0.74    3.98    2.88    0.00    0.00    0.00    0.00    0.49     0.00    0.00    0.00    0.00
   59    0.00    0.00    0.02    2.72    0.00    0.00   49.67    0.29    1.43    2.86    0.00    0.00    0.00    0.00    0.13     0.00    0.00    0.00    0.00
    2   10.30    0.07    0.97   80.30    0.00    0.00   49.67   17.24   81.76   84.85    0.02    0.00    0.01    0.00    2.87     0.01    0.00    0.00    0.00
   60    0.00    0.00    0.02    2.70    0.00    0.00   49.36    0.31    1.32    2.85    0.00    0.00    0.00    0.00    0.03     0.00    0.00    0.00    0.00
   61    0.00    0.00    0.01    2.69    0.00    0.00   49.12    0.25    1.11    2.83    0.00    0.00    0.00    0.00    0.05     0.00    0.00    0.00    0.00
   62    0.00    0.00    0.01    2.68    0.00    0.00   48.88    0.24    1.09    2.81    0.00    0.00    0.00    0.00    0.08     0.00    0.00    0.00    0.00
   63    0.00    0.00    0.01    2.66    0.00    0.00   48.56    0.33    1.64    2.80    0.00    0.00    0.00    0.00    0.25     0.00    0.00    0.00    0.00
   64    0.00    0.00    0.01    2.65    0.00    0.00   48.06    0.50    2.36    2.78    0.00    0.00    0.00    0.00    0.28     0.00    0.00    0.00    0.00
   65    0.00    0.00    0.01    2.64    0.00    0.00   47.83    0.23    0.97    2.76    0.00    0.00    0.00    0.00    0.06     0.00    0.00    0.00    0.00
   66    0.22    0.00    0.01    2.62    0.00    0.00   47.52    0.53    1.59    2.75    0.00    0.00    0.00    0.00    0.12     0.00    0.00    0.00    0.00
   67    0.00    0.00    0.00    2.61    0.00    0.00   46.53    1.01    4.96    2.73    0.00    0.00    0.00    0.00    0.28     0.00    0.00    0.00    0.00
   68    0.00    0.00    0.00    2.59    0.00    0.00   45.61    0.95    4.78    2.72    0.00    0.00    0.00    0.00    0.65     0.00    0.00    0.00    0.00
   69    0.00    0.00    0.00    2.58    0.00    0.00   44.69    0.93    4.16    2.70    0.00    0.00    0.00    0.00    0.47     0.00    0.00    0.00    0.00
   70    0.00    0.00    0.00    2.56    0.00    0.00   43.67    1.04    4.09    2.69    0.00    0.00    0.00    0.00    0.44     0.00    0.00    0.00    0.00
   71    0.00    0.00    0.00    2.55    0.00    0.00   42.56    1.13    4.71    2.67    0.00    0.00    0.00    0.00    0.49     0.00    0.00    0.00    0.00
   72    0.00    0.00    0.00    2.54    0.00    0.00   41.17    1.41    5.81    2.66    0.00    0.00    0.00    0.00    0.50     0.00    0.00    0.00    0.00
   73    1.52    0.00    0.03    2.52    0.00    0.00   40.80    1.79    3.98    2.67    0.00    0.00    0.00    0.00    0.46     0.00    0.00    0.00    0.00
   74    0.00    0.00    0.02    2.51    0.00    0.00   39.20    1.62    4.59    2.65    0.00    0.00    0.00    0.00    0.51     0.00    0.00    0.00    0.00
   75    0.00    0.00    0.02    2.49    0.00    0.00   37.65    1.56    3.50    2.63    0.00    0.00    0.00    0.00    0.34     0.00    0.00    0.00    0.00
   76    1.03    0.00    0.02    2.48    0.00    0.00   36.55    2.06    4.91    2.63    0.00    0.00    0.00    0.00    0.33     0.00    0.00    0.00    0.00
   77    0.00    0.00    0.02    2.46    0.00    0.00   34.39    2.19    5.93    2.60    0.00    0.00    0.00    0.00    0.45     0.00    0.00    0.00    0.00
   78    0.00    0.00    0.02    2.45    0.00    0.00   32.43    1.96    3.86    2.58    0.00    0.00    0.00    0.00    0.30     0.00    0.00    0.00    0.00
   79    0.09    0.00    0.01    2.43    0.00    0.00   30.45    2.08    5.23    2.57    0.00    0.00    0.00    0.00    0.43     0.00    0.00    0.00    0.00
   80    3.21    0.12    0.05    2.42    0.00    0.00   31.14    2.14    4.27    2.69    0.06    0.00    0.00    0.00    0.29     0.02    0.00    0.00    0.00
   81    0.46    0.00    0.04    2.40    0.00    0.00   29.72    1.89    3.76    2.57    0.00    0.00    0.00    0.00    0.29     0.00    0.00    0.00    0.00
   82    0.00    0.00    0.03    2.39    0.00    0.00   27.86    1.89    5.14    2.54    0.00    0.00    0.00    0.00    0.34     0.00    0.00    0.00    0.00
   83    0.00    0.00    0.03    2.37    0.00    0.00   27.31    0.56    1.50    2.52    0.00    0.00    0.00    0.00    0.24     0.00    0.00    0.00    0.00
   84    0.15    0.00    0.02    2.36    0.00    0.00   26.72    0.75    2.09    2.50    0.00    0.00    0.00    0.00    0.23     0.00    0.00    0.00    0.00
   85    0.00    0.00    0.02    2.34    0.00    0.00   25.31    1.42    3.34    2.48    0.00    0.00    0.00    0.00    0.13     0.00    0.00    0.00    0.00
   86    0.00    0.00    0.02    2.33    0.00    0.00   23.60    1.72    3.59    2.46    0.00    0.00    0.00    0.00    0.13     0.00    0.00    0.00    0.00
   87    0.14    0.00    0.02    2.31    0.00    0.00   21.71    2.03    3.91    2.45    0.00    0.00    0.00    0.00    0.12     0.00    0.00    0.00    0.00
   88    0.00    0.00    0.01    2.30    0.00    0.00   20.20    1.53    4.05    2.43    0.00    0.00    0.00    0.00    0.13     0.00    0.00    0.00    0.00
   89    0.00    0.00    0.01    2.28    0.00    0.00   17.86    2.35    4.60    2.41    0.00    0.00    0.00    0.00    0.16     0.00    0.00    0.00    0.00
   90    0.00    0.00    0.01    2.27    0.00    0.00   16.33    1.55    4.30    2.39    0.00    0.00    0.00    0.00    0.14     0.00    0.00    0.00    0.00
    3    6.82    0.12    0.49   77.17    0.00    0.00   16.33   39.96  111.15   81.52    0.06    0.00    0.01    0.00    8.70     0.02    0.00    0.00    0.00
   91    0.00    0.00    0.01    2.25    0.00    0.00   14.95    1.40    5.54    2.38    0.00    0.00    0.00    0.00    0.16     0.00    0.00    0.00    0.00
   92    0.00    0.00    0.01    2.24    0.00    0.00   13.96    1.01    5.15    2.36    0.00    0.00    0.00    0.00    0.21     0.00    0.00    0.00    0.00
   93    0.00    0.00    0.01    2.22    0.00    0.00   13.05    0.95    6.13    2.34    0.00    0.00    0.00    0.00    0.19     0.00    0.00    0.00    0.00
   94    0.00    0.00    0.00    2.21    0.00    0.00   12.06    1.02    7.13    2.33    0.00    0.00    0.00    0.00    0.23     0.00    0.00    0.00    0.00
   95    0.00    0.00    0.00    2.19    0.00    0.00   11.26    0.82    6.33    2.31    0.00    0.00    0.00    0.00    0.16     0.00    0.00    0.00    0.00
   96    0.00    0.00    0.00    2.18    0.00    0.00   10.60    0.69    5.73    2.29    0.00    0.00    0.00    0.00    0.12     0.00    0.00    0.00    0.00
   97    0.00    0.00    0.00    2.16    0.00    0.00   10.13    0.50    5.03    2.28    0.00    0.00    0.00    0.00    0.13     0.00    0.00    0.00    0.00
   98    0.00    0.00    0.00    2.15    0.00    0.00    9.82    0.33    4.29    2.26    0.00    0.00    0.00    0.00    0.12     0.00    0.00    0.00    0.00
   99    0.00    0.00    0.00    2.13    0.00    0.00    9.48    0.37    5.72    2.25    0.00    0.00    0.00    0.00    0.13     0.00    0.00    0.00    0.00
  100    0.46    0.00    0.01    2.12    0.00    0.00    9.44    0.49    5.43    2.23    0.00    0.00    0.00    0.00    0.12     0.00    0.00    0.00    0.00
  101    0.22    0.00    0.01    2.10    0.00    0.00    9.30    0.36    3.21    2.22    0.00    0.00    0.00    0.00    0.08     0.00    0.00    0.00    0.00
  102    0.00    0.00    0.00    2.09    0.00    0.00    8.93    0.40    6.10    2.20    0.00    0.00    0.00    0.00    0.07     0.00    0.00    0.00    0.00
  103    0.00    0.00    0.00    2.07    0.00    0.00    8.65    0.30    5.35    2.19    0.00    0.00    0.00    0.00    0.06     0.00    0.00    0.00    0.00
  104    0.00    0.00    0.00    2.06    0.00    0.00    8.40    0.26    5.10    2.17    0.00    0.00    0.00    0.00    0.03     0.00    0.00    0.00    0.00
  105    0.00    0.00    0.00    2.04    0.00    0.00    8.13    0.29    5.65    2.15    0.00    0.00    0.00    0.00    0.02     0.00    0.00    0.00    0.00
  106    0.04    0.00    0.00    2.03    0.00    0.00    7.87    0.32    6.92    2.14    0.00    0.00    0.00    0.00    0.02     0.00    0.00    0.00    0.00
  107    0.02    0.00    0.00    2.01    0.00    0.00    7.63    0.28    6.12    2.12    0.00    0.00    0.00    0.00    0.02     0.00    0.00    0.00    0.00
  108    0.00    0.00    0.00    2.00    0.00    0.00    7.39    0.26    6.40    2.11    0.00    0.00    0.00    0.00    0.02     0.00    0.00    0.00    0.00
  109    0.00    0.00    0.00    1.98    0.00    0.00    7.18    0.23    6.25    2.09    0.00    0.00    0.00    0.00    0.02     0.00    0.00    0.00    0.00
  110    0.00    0.00    0.00    1.97    0.00    0.00    6.97    0.24    7.47    2.08    0.00    0.00    0.00    0.00    0.01     0.00    0.00    0.00    0.00
  111    0.30    0.00    0.01    1.95    0.00    0.00    7.00    0.27    7.02    2.07    0.00    0.00    0.00    0.00    0.01     0.00    0.00    0.00    0.00
  112    0.20    0.00    0.01    1.94    0.00    0.00    7.05    0.13    2.85    2.05    0.00    0.00    0.00    0.00    0.01     0.00    0.00    0.00    0.00
  113    0.00    0.00    0.01    1.92    0.00    0.00    6.92    0.15    3.86    2.04    0.00    0.00    0.00    0.00    0.01     0.00    0.00    0.00    0.00
  114    0.21    0.00    0.01    1.91    0.00    0.00    6.92    0.20    4.75    2.03    0.00    0.00    0.00    0.00    0.00     0.00    0.00    0.00    0.00
  115    0.24    0.00    0.01    1.90    0.00    0.00    6.88    0.27    6.94    2.02    0.00    0.00    0.00    0.00    0.00     0.00    0.00    0.00    0.00
  116    8.82    0.08    0.21    1.88    0.00    0.00   11.76    2.90    6.11    2.27    0.01    0.00    0.00    0.00    0.00     0.00    0.00    0.00    0.00
  117    3.50    0.01    0.24    1.87    0.00    0.00   11.56    3.36    7.78    2.23    0.00    0.00    0.00    0.00    0.00     0.00    0.00    0.00    0.00
  118    0.00    0.00    0.19    1.85    0.00    0.00    9.35    2.22    5.96    2.15    0.00    0.00    0.00    0.00    0.00     0.00    0.00    0.00    0.00
  119    5.32    0.02    0.27    1.84    0.00    0.00   11.11    3.00    7.20    2.23    0.00    0.00    0.00    0.00    0.00     0.00    0.00    0.00    0.00
  120    0.00    0.00    0.21    1.82    0.00    0.00    9.17    1.96    6.44    2.14    0.00    0.00    0.00    0.00    0.00     0.00    0.00    0.00    0.00
    4   19.33    0.11    1.24   61.07    0.00    0.00    9.17   25.02  173.98   65.71    0.01    0.00    0.00    0.00    1.97     0.01    0.00    0.00    0.00
  121    0.00    0.00    0.17    1.81    0.00    0.00    8.60    0.58    5.19    2.08    0.00    0.00    0.00    0.00    0.00     0.00    0.00    0.00    0.00
  122    8.17    0.11    0.27    1.80    0.00    0.00   13.27    2.63    4.76    2.27    0.10    0.00    0.00    0.00    0.00     0.03    0.00    0.00    0.00
  123    9.28    0.12    0.43    1.78    0.00    0.00   19.42    1.97    2.58    2.43    0.01    0.00    0.00    0.00    0.00     0.01    0.00    0.00    0.00
  124    0.68    0.00    0.35    1.77    0.00    0.00   17.92    2.13    4.16    2.23    0.00    0.00    0.00    0.00    0.00     0.00    0.00    0.00    0.00
  125    1.39    0.01    0.30    1.75    0.00    0.00   17.22    1.96    3.68    2.16    0.01    0.00    0.00    0.00    0.00     0.00    0.00    0.00    0.00
  126    1.10    0.00    0.25    1.74    0.00    0.00   16.49    1.75    3.06    2.10    0.00    0.00    0.00    0.00    0.00     0.00    0.00    0.00    0.00
  127    3.65    0.14    0.27    1.73    0.00    0.00   17.94    1.63    2.60    2.22    0.05    0.00    0.00    0.00    0.00     0.01    0.00    0.00    0.00
  128    0.00    0.00    0.21    1.71    0.00    0.00   16.01    1.95    4.60    2.04    0.00    0.00    0.00    0.00    0.00     0.00    0.00    0.00    0.00
  129    2.78    0.00    0.23    1.70    0.00    0.00   16.09    2.46    4.61    2.03    0.00    0.00    0.00    0.00    0.01     0.00    0.00    0.00    0.00
  130    1.76    0.03    0.20    1.69    0.00    0.00   15.33    2.37    4.51    2.02    0.01    0.00    0.00    0.00    0.03     0.00    0.00    0.00    0.00
  131    0.00    0.00    0.16    1.67    0.00    0.00   13.68    1.67    5.31    1.94    0.00    0.00    0.00    0.00    0.02     0.00    0.00    0.00    0.00
  132    0.04    0.00    0.13    1.66    0.00    0.00   12.38    1.37    5.51    1.89    0.00    0.00    0.00    0.00    0.04     0.00    0.00    0.00    0.00
  133    0.46    0.00    0.11    1.65    0.00    0.00   11.17    1.68    6.31    1.85    0.00    0.00    0.00    0.00    0.00     0.00    0.00    0.00    0.00
  134    0.00    0.00    0.09    1.63    0.00    0.00    9.83    1.37    8.78    1.82    0.00    0.00    0.00    0.00    0.00     0.00    0.00    0.00    0.00
  135    7.27    0.40    0.18    1.62    0.00    0.00   14.02    1.96    6.07    2.25    0.20    0.00    0.00    0.00    0.00     0.05    0.00    0.01    0.00
  136    0.66    0.00    0.16    1.61    0.00    0.00   13.85    0.79    3.23    1.90    0.00    0.00    0.00    0.00    0.00     0.00    0.00    0.00    0.00
  137    1.47    0.02    0.15    1.59    0.00    0.00   14.37    0.79    2.46    1.87    0.01    0.00    0.00    0.00    0.00     0.00    0.00    0.00    0.00
  138   27.88    9.95    0.73    1.58    5.92    0.00   20.88    1.66    6.49    8.94    0.87    0.00    0.00    0.06    0.00     0.18    0.00    0.02    0.00
  139   11.47    3.01    0.92    1.57    5.12    0.00   21.64    0.61    2.30    6.35    0.00    0.00    0.00    0.05    0.01     0.07    0.00    0.01    0.00
  140    0.29    0.00    0.77    1.56    0.48    0.00   20.34    1.07    4.51    3.64    0.00    0.00    0.00    0.00    0.01     0.01    0.00    0.00    0.00
  141    0.00    0.00    0.64    1.55    0.03    0.00   19.35    0.98    4.90    2.86    0.00    0.00    0.00    0.00    0.01     0.00    0.00    0.00    0.00
  142    1.33    0.00    0.55    1.54    0.03    0.00   19.39    1.19    2.95    2.50    0.00    0.00    0.00    0.00    0.01     0.00    0.00    0.00    0.00
  143    4.40    0.31    0.56    1.53    1.26    0.00   20.74    0.81    2.84    2.64    0.10    0.00    0.00    0.02    0.00     0.01    0.00    0.00    0.00
  144    2.97    0.18    0.56    1.52    1.53    0.00   20.41    1.02    4.17    2.47    0.00    0.00    0.00    0.02    0.01     0.01    0.00    0.00    0.00
  145    0.00    0.00    0.46    1.51    0.12    0.00   19.24    1.07    5.65    2.17    0.00    0.00    0.00    0.00    0.01     0.00    0.00    0.00    0.00
  146    0.00    0.00    0.38    1.50    0.01    0.00   18.38    0.87    4.94    2.03    0.00    0.00    0.00    0.00    0.02     0.00    0.00    0.00    0.00
  147    0.00    0.00    0.32    1.49    0.00    0.00   17.50    0.91    6.03    1.93    0.00    0.00    0.00    0.00    0.03     0.00    0.00    0.00    0.00
  148    0.60    0.03    0.28    1.48    0.18    0.00   17.30    0.49    2.71    1.90    0.00    0.00    0.00    0.00    0.05     0.00    0.00    0.00    0.00
  149    0.00    0.00    0.24    1.47    0.01    0.00   16.46    0.85    5.50    1.81    0.00    0.00    0.00    0.00    0.00     0.00    0.00    0.00    0.00
  150    0.00    0.00    0.20    1.46    0.00    0.00   15.95    0.51    2.60    1.75    0.00    0.00    0.00    0.00    0.00     0.00    0.00    0.00    0.00
  151    0.00    0.00    0.16    1.45    0.00    0.00   15.23    0.73    4.44    1.71    0.00    0.00    0.00    0.00    0.03     0.00    0.00    0.00    0.00
    5   87.63   14.33   10.44   50.08   14.69    0.00   15.23   41.84  137.43   77.82    1.36    0.01    0.01    0.17    0.32     0.38    0.00    0.05    0.00
  152    0.11    0.00    0.14    1.44    0.00    0.00   14.39    0.98    7.00    1.67    0.00    0.00    0.00    0.00    0.03     0.00    0.00    0.00    0.00
  153    0.50    0.01    0.12    1.43    0.05    0.00   13.95    0.86    5.78    1.65    0.00    0.00    0.00    0.00    0.06     0.00    0.00    0.00    0.00
  154    6.74    0.60    0.21    1.42    0.09    0.00   18.25    1.05    4.91    2.23    0.11    0.00    0.00    0.00    0.04     0.01    0.00    0.00    0.00
  155    0.00    0.00    0.18    1.41    0.00    0.00   17.48    0.79    4.57    1.74    0.00    0.00    0.00    0.00    0.03     0.00    0.00    0.00    0.00
  156    0.00    0.00    0.15    1.40    0.00    0.00   16.52    0.99    6.52    1.64    0.00    0.00    0.00    0.00    0.03     0.00    0.00    0.00    0.00
  157    0.00    0.00    0.12    1.39    0.00    0.00   15.70    0.84    5.94    1.60    0.00    0.00    0.00    0.00    0.04     0.00    0.00    0.00    0.00
  158    0.00    0.00    0.10    1.38    0.00    0.00   15.07    0.65    4.36    1.57    0.00    0.00    0.00    0.00    0.04     0.00    0.00    0.00    0.00
  159    0.52    0.02    0.10    1.37    0.09    0.00   14.70    0.74    5.24    1.57    0.00    0.00    0.00    0.00    0.02     0.00    0.00    0.00    0.00
  160    0.87    0.10    0.11    1.36    0.38    0.00   14.20    0.76    5.25    1.63    0.00    0.00    0.00    0.01    0.03     0.00    0.00    0.00    0.00
  161    0.34    0.01    0.10    1.35    0.20    0.00   13.73    0.53    2.76    1.56    0.00    0.00    0.00    0.00    0.02     0.00    0.00    0.00    0.00
  162    0.52    0.01    0.10    1.34    0.17    0.00   13.23    0.78    3.21    1.53    0.00    0.00    0.00    0.00    0.00     0.00    0.00    0.00    0.00
  163    0.00    0.00    0.08    1.33    0.01    0.00   12.67    0.55    3.36    1.49    0.00    0.00    0.00    0.00    0.00     0.00    0.00    0.00    0.00
  164    1.12    0.00    0.07    1.32    0.00    0.00   12.57    1.18    5.26    1.48    0.00    0.00    0.00    0.00    0.00     0.00    0.00    0.00    0.00
  165    0.00    0.00    0.06    1.31    0.00    0.00   12.02    0.58    4.86    1.45    0.00    0.00    0.00    0.00    0.02     0.00    0.00    0.00    0.00
  166    0.90    0.00    0.06    1.30    0.00    0.00   12.09    0.79    6.32    1.45    0.00    0.00    0.00    0.00    0.03     0.00    0.00    0.00    0.00
  167    0.28    0.00    0.05    1.29    0.00    0.00   11.65    0.71    5.54    1.43    0.00    0.00    0.00    0.00    0.05     0.00    0.00    0.00    0.00
  168    0.60    0.04    0.07    1.28    0.28    0.00   11.08    0.75    6.03    1.47    0.00    0.00    0.00    0.00    0.03     0.00    0.00    0.00    0.00
  169    0.04    0.00    0.06    1.27    0.02    0.00   10.58    0.55    5.42    1.41    0.00    0.00    0.00    0.00    0.03     0.00    0.00    0.00    0.00
  170    6.81    0.54    0.16    1.26    0.00    0.00   15.17    0.98    4.87    1.97    0.11    0.00    0.00    0.00    0.04     0.01    0.00    0.00    0.00
  171    0.00    0.00    0.13    1.25    0.00    0.00   14.37    0.82    5.49    1.52    0.00    0.00    0.00    0.00    0.03     0.00    0.00    0.00    0.00
  172   11.77    0.13    0.36    1.24    0.00    0.00   22.04    2.71    4.02    1.81    0.04    0.00    0.00    0.00    0.02     0.01    0.00    0.00    0.00
  173    3.29    0.18    0.36    1.23    0.08    0.00   22.00    2.65    5.30    1.84    0.02    0.00    0.00    0.01    0.02     0.00    0.00    0.00    0.00
  174    0.59    0.02    0.30    1.22    0.12    0.00   20.54    1.84    3.86    1.65    0.00    0.00    0.00    0.00    0.02     0.00    0.00    0.00    0.00
  175    0.38    0.01    0.26    1.21    0.21    0.00   19.08    1.54    3.10    1.57    0.00    0.00    0.00    0.00    0.02     0.00    0.00    0.00    0.00
  176    0.62    0.06    0.24    1.20    0.35    0.00   18.19    0.98    3.84    1.57    0.00    0.00    0.00    0.00    0.02     0.00    0.00    0.00    0.00
  177    0.00    0.00    0.19    1.19    0.03    0.00   17.13    1.05    5.18    1.47    0.00    0.00    0.00    0.00    0.02     0.00    0.00    0.00    0.00
  178    0.00    0.00    0.16    1.18    0.00    0.00   16.13    1.03    5.70    1.42    0.00    0.00    0.00    0.00    0.02     0.00    0.00    0.00    0.00
  179    0.00    0.00    0.13    1.18    0.00    0.00   15.05    1.10    6.27    1.38    0.00    0.00    0.00    0.00    0.02     0.00    0.00    0.00    0.00
  180    0.00    0.00    0.10    1.17    0.00    0.00   13.94    1.14    7.10    1.35    0.00    0.00    0.00    0.00    0.02     0.00    0.00    0.00    0.00
  181    1.98    0.00    0.12    1.16    0.00    0.00   14.04    1.73    5.89    1.36    0.00    0.00    0.00    0.00    0.02     0.00    0.00    0.00    0.00
    6   37.96    1.73    4.38   38.81    2.07    0.00   14.04   31.61  152.98   47.45    0.28    0.01    0.01    0.03    0.76     0.03    0.00    0.00    0.00
  182   13.27    0.51    0.35    1.15    0.01    0.00   21.38    4.03    6.62    2.02    0.09    0.00    0.00    0.00    0.02     0.01    0.00    0.00    0.00
  183    0.00    0.00    0.28    1.13    0.00    0.00   18.36    3.03    5.70    1.55    0.00    0.00    0.00    0.00    0.02     0.00    0.00    0.00    0.00
  184    0.00    0.00    0.23    1.13    0.00    0.00   16.13    2.25    6.17    1.44    0.00    0.00    0.00    0.00    0.02     0.00    0.00    0.00    0.00
  185    0.00    0.00    0.18    1.12    0.00    0.00   14.96    1.18    5.44    1.38    0.00    0.00    0.00    0.00    0.02     0.00    0.00    0.00    0.00
  186    0.00    0.00    0.15    1.11    0.00    0.00   14.02    0.96    5.77    1.33    0.00    0.00    0.00    0.00    0.02     0.00    0.00    0.00    0.00
  187    0.00    0.00    0.12    1.10    0.00    0.00   13.08    0.97    6.60    1.30    0.00    0.00    0.00    0.00    0.02     0.00    0.00    0.00    0.00
  188    0.00    0.00    0.10    1.09    0.00    0.00   12.34    0.76    4.98    1.26    0.00    0.00    0.00    0.00    0.02     0.00    0.00    0.00    0.00
  189    0.00    0.00    0.08    1.08    0.00    0.00   11.76    0.59    3.88    1.24    0.00    0.00    0.00    0.00    0.01     0.00    0.00    0.00    0.00
  190    0.97    0.00    0.07    1.07    0.00    0.00   11.45    1.24    5.00    1.22    0.00    0.00    0.00    0.00    0.01     0.00    0.00    0.00    0.00
  191    0.00    0.00    0.06    1.06    0.00    0.00   10.84    0.62    4.02    1.20    0.00    0.00    0.00    0.00    0.01     0.00    0.00    0.00    0.00
  192    0.00    0.00    0.05    1.06    0.00    0.00   10.28    0.58    4.28    1.18    0.00    0.00    0.00    0.00    0.01     0.00    0.00    0.00    0.00
  193    0.00    0.00    0.04    1.05    0.00    0.00    9.65    0.64    4.61    1.16    0.00    0.00    0.00    0.00    0.01     0.00    0.00    0.00    0.00
  194    0.88    0.00    0.04    1.04    0.00    0.00    9.90    0.56    2.68    1.16    0.00    0.00    0.00    0.00    0.01     0.00    0.00    0.00    0.00
  195    0.00    0.00    0.03    1.03    0.00    0.00    9.26    0.66    4.62    1.14    0.00    0.00    0.00    0.00    0.01     0.00    0.00    0.00    0.00
  196   15.60    2.70    0.36    1.02    1.81    0.00   16.89    1.33    6.19    3.51    0.61    0.00    0.00    0.00    0.01     0.07    0.00    0.01    0.00
  197    0.32    0.00    0.31    1.01    0.11    0.00   16.16    0.92    4.96    1.76    0.00    0.00    0.00    0.00    0.01     0.01    0.00    0.00    0.00
  198    0.43    0.00    0.26    1.00    0.00    0.00   15.73    0.82    4.58    1.47    0.00    0.00    0.00    0.00    0.02     0.00    0.00    0.00    0.00
  199    0.00    0.00    0.22    1.00    0.00    0.00   14.92    0.82    5.11    1.35    0.00    0.00    0.00    0.00    0.02     0.00    0.00    0.00    0.00
  200    0.00    0.00    0.18    0.99    0.00    0.00   14.22    0.71    4.39    1.27    0.00    0.00    0.00    0.00    0.02     0.00    0.00    0.00    0.00
  201    0.00    0.00    0.15    0.98    0.00    0.00   13.92    0.31    1.69    1.22    0.00    0.00    0.00    0.00    0.02     0.00    0.00    0.00    0.00
  202    0.00    0.00    0.13    0.97    0.00    0.00   13.40    0.53    3.58    1.18    0.00    0.00    0.00    0.00    0.02     0.00    0.00    0.00    0.00
  203    0.00    0.00    0.10    0.96    0.00    0.00   12.84    0.58    4.24    1.15    0.00    0.00    0.00    0.00    0.02     0.00    0.00    0.00    0.00
  204    0.09    0.00    0.09    0.96    0.00    0.00   12.18    0.76    4.90    1.12    0.00    0.00    0.00    0.00    0.01     0.00    0.00    0.00    0.00
  205    0.00    0.00    0.07    0.95    0.00    0.00   11.63    0.57    4.65    1.09    0.00    0.00    0.00    0.00    0.01     0.00    0.00    0.00    0.00
  206    0.02    0.00    0.06    0.94    0.00    0.00   11.28    0.38    3.52    1.07    0.00    0.00    0.00    0.00    0.01     0.00    0.00    0.00    0.00
  207    4.57    0.29    0.11    0.93    0.01    0.00   14.23    0.96    5.14    1.36    0.13    0.00    0.00    0.00    0.01     0.01    0.00    0.00    0.00
  208    4.72    0.23    0.19    0.93    0.41    0.00   16.28    1.43    4.21    1.41    0.00    0.00    0.00    0.01    0.02     0.01    0.00    0.00    0.00
  209    0.15    0.00    0.15    0.92    0.01    0.00   15.24    1.21    6.23    1.17    0.00    0.00    0.00    0.00    0.02     0.00    0.00    0.00    0.00
  210    0.44    0.00    0.13    0.91    0.00    0.00   14.66    1.02    5.63    1.11    0.00    0.00    0.00    0.00    0.02     0.00    0.00    0.00    0.00
  211    0.00    0.00    0.11    0.90    0.00    0.00   13.90    0.80    6.49    1.08    0.00    0.00    0.00    0.00    0.02     0.00    0.00    0.00    0.00
  212    0.00    0.00    0.09    0.89    0.00    0.00   13.10    0.82    7.43    1.05    0.00    0.00    0.00    0.00    0.02     0.00    0.00    0.00    0.00
    7   41.46    3.74    4.51   31.47    2.36    0.00   13.10   32.06  153.33   41.94    0.83    0.00    0.00    0.01    0.47     0.10    0.00    0.01    0.00
  213    0.00    0.00    0.08    0.88    0.00    0.00   12.31    0.81    6.79    1.02    0.00    0.00    0.00    0.00    0.01     0.00    0.00    0.00    0.00
  214    0.07    0.00    0.06    0.87    0.00    0.00   11.69    0.72    6.87    1.00    0.00    0.00    0.00    0.00    0.01     0.00    0.00    0.00    0.00
  215    1.69    0.03    0.07    0.86    0.00    0.00   12.42    0.82    6.65    1.03    0.02    0.00    0.00    0.00    0.01     0.00    0.00    0.00    0.00
  216   17.95    5.88    0.45    0.85    4.79    0.00   16.39    0.85    4.28    5.25    0.81    0.00    0.00    0.02    0.01     0.08    0.00    0.01    0.00
  217    7.95    1.57    0.61    0.85    4.06    0.00   16.34    0.88    5.16    3.64    0.00    0.00    0.00    0.03    0.01     0.03    0.00    0.00    0.00
  218    0.00    0.00    0.51    0.84    0.35    0.00   15.49    0.48    4.47    2.08    0.00    0.00    0.00    0.00    0.00     0.00    0.00    0.00    0.00
  219    0.20    0.00    0.43    0.84    0.02    0.00   15.21    0.46    4.80    1.64    0.00    0.00    0.00    0.00    0.00     0.00    0.00    0.00    0.00
  220    0.23    0.00    0.36    0.83    0.00    0.00   15.02    0.43    3.98    1.42    0.00    0.00    0.00    0.00    0.00     0.00    0.00    0.00    0.00
  221    0.26    0.00    0.30    0.82    0.00    0.00   14.87    0.41    3.82    1.29    0.00    0.00    0.00    0.00    0.00     0.00    0.00    0.00    0.00
  222    0.09    0.00    0.25    0.80    0.00    0.00   14.67    0.30    2.68    1.18    0.00    0.00    0.00    0.00    0.00     0.00    0.00    0.00    0.00
  223    1.98    0.00    0.24    0.78    0.00    0.00   15.53    0.96    4.64    1.13    0.00    0.00    0.00    0.00    0.00     0.00    0.00    0.00    0.00
  224    4.41    0.01    0.30    0.75    0.00    0.00   18.20    1.27    3.31    1.14    0.00    0.00    0.00    0.00    0.00     0.00    0.00    0.00    0.00
  225    0.35    0.00    0.25    0.73    0.00    0.00   17.75    0.80    4.61    1.06    0.00    0.00    0.00    0.00    0.00     0.00    0.00    0.00    0.00
  226    1.14    0.00    0.22    0.69    0.00    0.00   17.17    1.67    6.43    0.98    0.00    0.00    0.00    0.00    0.00     0.00    0.00    0.00    0.00
  227    0.04    0.00    0.18    0.68    0.00    0.00   16.47    0.76    5.27    0.92    0.00    0.00    0.00    0.00    0.00     0.00    0.00    0.00    0.00
  228    0.00    0.00    0.14    0.67    0.00    0.00   15.96    0.54    4.56    0.88    0.00    0.00    0.00    0.00    0.00     0.00    0.00    0.00    0.00
  229    0.00    0.00    0.12    0.67    0.00    0.00   15.48    0.50    4.70    0.85    0.00    0.00    0.00    0.00    0.00     0.00    0.00    0.00    0.00
  230    0.66    0.00    0.10    0.66    0.00    0.00   15.39    0.73    5.69    0.83    0.00    0.00    0.00    0.00    0.00     0.00    0.00    0.00    0.00
  231    0.00    0.00    0.08    0.66    0.00    0.00   14.88    0.52    4.92    0.80    0.00    0.00    0.00    0.00    0.00     0.00    0.00    0.00    0.00
  232    0.19    0.00    0.07    0.65    0.00    0.00   14.50    0.58    5.50    0.79    0.00    0.00    0.00    0.00    0.00     0.00    0.00    0.00    0.00
  233    4.42    0.24    0.12    0.65    0.00    0.00   17.10    1.23    5.83    1.03    0.09    0.00    0.00    0.00    0.00     0.00    0.00    0.00    0.00
  234    0.32    0.00    0.10    0.64    0.00    0.00   16.50    0.92    5.83    0.82    0.00    0.00    0.00    0.00    0.00     0.00    0.00    0.00    0.00
  235    0.81    0.00    0.09    0.63    0.00    0.00   16.35    0.92    5.94    0.79    0.00    0.00    0.00    0.00    0.00     0.00    0.00    0.00    0.00
  236    9.88    2.22    0.34    0.63    3.78    0.00   17.58    0.98    5.89    2.59    0.15    0.00    0.00    0.04    0.00     0.01    0.00    0.00    0.00
  237    0.99    0.01    0.31    0.62    0.49    0.00   17.56    0.36    1.41    1.34    0.00    0.00    0.00    0.01    0.00     0.00    0.00    0.00    0.00
  238    0.09    0.00    0.26    0.61    0.05    0.00   17.35    0.24    1.26    1.06    0.00    0.00    0.00    0.00    0.00     0.00    0.00    0.00    0.00
  239    3.02    0.17    0.31    0.61    1.48    0.00   17.53    0.61    3.13    1.19    0.07    0.00    0.00    0.03    0.00     0.00    0.00    0.00    0.00
  240    0.33    0.00    0.26    0.60    0.13    0.00   17.01    0.70    3.95    0.98    0.00    0.00    0.00    0.00    0.00     0.00    0.00    0.00    0.00
  241    0.22    0.00    0.22    0.60    0.01    0.00   16.60    0.61    4.25    0.91    0.00    0.00    0.00    0.00    0.00     0.00    0.00    0.00    0.00
  242    0.05    0.00    0.19    0.60    0.00    0.00   16.25    0.39    2.66    0.86    0.00    0.00    0.00    0.00    0.00     0.00    0.00    0.00    0.00
  243    0.00    0.00    0.16    0.60    0.00    0.00   15.70    0.57    4.95    0.82    0.00    0.00    0.00    0.00    0.00     0.00    0.00    0.00    0.00
    8   57.34   10.12    7.17   22.18   15.16    0.00   15.70   22.03  144.22   41.33    1.13    0.00    0.02    0.12    0.06     0.13    0.00    0.02    0.00
  244    0.00    0.00    0.13    0.59    0.00    0.00   15.06    0.67    6.24    0.79    0.00    0.00    0.00    0.00    0.00     0.00    0.00    0.00    0.00
  245    0.00    0.00    0.11    0.59    0.00    0.00   14.63    0.44    4.70    0.76    0.00    0.00    0.00    0.00    0.00     0.00    0.00    0.00    0.00
  246    0.00    0.00    0.09    0.59    0.00    0.00   14.33    0.30    3.02    0.74    0.00    0.00    0.00    0.00    0.00     0.00    0.00    0.00    0.00
  247    0.00    0.00    0.08    0.59    0.00    0.00   14.08    0.27    4.47    0.72    0.00    0.00    0.00    0.00    0.00     0.00    0.00    0.00    0.00
  248    0.00    0.00    0.06    0.59    0.00    0.00   13.95    0.14    2.18    0.71    0.00    0.00    0.00    0.00    0.00     0.00    0.00    0.00    0.00
  249    0.00    0.00    0.05    0.58    0.00    0.00   13.81    0.14    2.59    0.69    0.00    0.00    0.00    0.00    0.00     0.00    0.00    0.00    0.00
  250    0.00    0.00    0.04    0.58    0.00    0.00   13.65    0.18    3.28    0.68    0.00    0.00    0.00    0.00    0.00     0.00    0.00    0.00    0.00
  251    4.94    0.01    0.15    0.58    0.00    0.00   17.09    0.98    3.20    0.79    0.00    0.00    0.00    0.00    0.00     0.00    0.00    0.00    0.00
  252    1.32    0.01    0.13    0.58    0.00    0.00   17.70    0.62    4.93    0.78    0.01    0.00    0.00    0.00    0.00     0.00    0.00    0.00    0.00
  253    1.23    0.01    0.12    0.58    0.00    0.00   18.12    0.72    4.77    0.76    0.01    0.00    0.00    0.00    0.00     0.00    0.00    0.00    0.00
  254    0.00    0.00    0.10    0.57    0.00    0.00   17.47    0.68    5.83    0.72    0.00    0.00    0.00    0.00    0.00     0.00    0.00    0.00    0.00
  255    0.00    0.00    0.08    0.56    0.00    0.00   16.83    0.67    6.46    0.69    0.00    0.00    0.00    0.00    0.00     0.00    0.00    0.00    0.00
  256    0.05    0.00    0.06    0.53    0.00    0.00   16.28    0.63    6.46    0.65    0.00    0.00    0.00    0.00    0.00     0.00    0.00    0.00    0.00
  257    0.61    0.00    0.05    0.52    0.00    0.00   15.91    1.00    6.45    0.63    0.00    0.00    0.00    0.00    0.00     0.00    0.00    0.00    0.00
  258   43.73    3.36    1.55    0.51    0.00    0.00   45.94    3.09    6.44    4.68    0.18    0.01    0.01    0.00    0.00     0.11    0.00    0.01    0.00
  259    0.00    0.00    1.22    0.51    0.00    0.00   44.15    1.82    5.79    2.26    0.00    0.00    0.01    0.00    0.00     0.01    0.00    0.00    0.00
  260    0.00    0.00    0.96    0.49    0.00    0.00   42.83    1.34    5.40    1.67    0.00    0.00    0.01    0.00    0.00     0.00    0.00    0.00    0.00
  261   14.90    1.01    1.25    0.47    0.01    0.00   51.43    2.93    6.05    2.59    0.05    0.01    0.01    0.00    0.00     0.03    0.00    0.00    0.00
  262    0.00    0.00    0.99    0.44    0.00    0.00   49.48    1.98    6.23    1.66    0.00    0.00    0.01    0.00    0.00     0.00    0.00    0.00    0.00
  263    0.53    0.00    0.78    0.38    0.00    0.00   47.92    2.12    6.85    1.28    0.00    0.00    0.00    0.00    0.00     0.00    0.00    0.00    0.00
  264    0.00    0.00    0.61    0.38    0.00    0.00   46.90    1.04    4.61    1.08    0.00    0.00    0.00    0.00    0.00     0.00    0.00    0.00    0.00
  265    0.00    0.00    0.49    0.38    0.00    0.00   45.96    0.96    4.97    0.93    0.00    0.00    0.00    0.00    0.00     0.00    0.00    0.00    0.00
  266    0.00    0.00    0.39    0.37    0.00    0.00   45.08    0.91    5.20    0.82    0.00    0.00    0.00    0.00    0.00     0.00    0.00    0.00    0.00
  267   10.57    0.35    0.58    0.36    0.01    0.00   51.76    2.24    4.50    1.27    0.01    0.00    0.00    0.00    0.00     0.01    0.00    0.00    0.00
  268    0.00    0.00    0.45    0.36    0.00    0.00   50.26    1.52    4.43    0.92    0.00    0.00    0.00    0.00    0.00     0.00    0.00    0.00    0.00
  269    4.17    0.25    0.41    0.36    0.00    0.00   51.96    1.88    4.97    1.06    0.05    0.00    0.00    0.00    0.00     0.00    0.00    0.00    0.00
  270    0.22    0.00    0.33    0.36    0.00    0.00   51.11    1.07    3.20    0.78    0.00    0.00    0.00    0.00    0.00     0.00    0.00    0.00    0.00
  271   12.21    0.45    0.62    0.36    0.07    0.00   59.00    2.05    3.02    1.39    0.03    0.00    0.00    0.00    0.00     0.01    0.00    0.00    0.00
  272    5.32    0.04    0.70    0.36    0.51    0.00   61.14    1.64    2.44    1.21    0.00    0.00    0.00    0.02    0.00     0.00    0.00    0.00    0.00
  273    2.61    0.00    0.62    0.36    0.25    0.00   61.70    1.45    1.86    1.06    0.00    0.00    0.00    0.01    0.00     0.00    0.00    0.00    0.00
    9  102.42    5.49   13.20   14.52    0.86    0.00   61.70   35.48  140.53   34.76    0.34    0.03    0.08    0.03    0.00     0.17    0.00    0.02    0.00
  274   27.57    5.30    1.52    0.37    9.09    0.00   68.07    1.41    1.68    5.69    0.34    0.00    0.01    0.32    0.00     0.09    0.00    0.01    0.00
  275   56.44   23.84    2.94    0.37   20.89    0.00   69.26    1.38    1.61   20.11    0.26    0.00    0.02    0.79    0.00     0.14    0.00    0.02    0.00
  276  120.88   77.56    4.63    0.38   28.76    0.00   71.01    0.45    0.50   60.25    2.54    0.01    0.03    0.96    0.00     0.97    0.01    0.12    0.00
  277  139.96   95.30    6.09    0.40   30.76    0.00   71.43    0.35    0.39   83.91    2.13    0.01    0.03    0.85    0.00     0.85    0.01    0.11    0.00
  278   18.31    2.96    5.74    0.42   11.91    0.00   64.82    5.51    9.56   33.50    0.02    0.00    0.03    0.31    0.00     0.15    0.01    0.02    0.00
  279    4.93    0.07    4.73    0.44    0.92    0.00   65.91    2.25    3.85   16.81    0.03    0.00    0.02    0.02    0.00     0.05    0.00    0.01    0.00
  280    0.26    0.00    3.82    0.45    0.20    0.00   64.08    1.86    4.61   10.01    0.00    0.00    0.02    0.00    0.00     0.02    0.00    0.00    0.00
  281    0.00    0.00    3.08    0.47    0.02    0.00   62.55    1.54    4.70    6.64    0.00    0.00    0.01    0.00    0.00     0.01    0.00    0.00    0.00
  282    2.06    0.07    2.53    0.49    0.39    0.00   62.36    1.54    4.33    4.84    0.02    0.00    0.01    0.01    0.00     0.01    0.00    0.00    0.00
  283    0.00    0.00    2.05    0.50    0.01    0.00   61.35    1.02    3.45    3.61    0.00    0.00    0.01    0.00    0.00     0.00    0.00    0.00    0.00
  284   27.37    5.46    2.55    0.52    8.13    0.00   68.32    2.15    3.04    7.59    0.17    0.00    0.01    0.20    0.00     0.04    0.00    0.01    0.00
  285    7.69    0.38    2.34    0.53    3.76    0.00   67.75    2.56    3.78    4.55    0.01    0.00    0.01    0.09    0.00     0.01    0.00    0.00    0.00
  286    9.72    0.99    2.31    0.55    4.21    0.00   68.52    1.68    2.12    4.26    0.01    0.00    0.01    0.13    0.00     0.01    0.00    0.00    0.00
  287   14.06    1.96    2.57    0.57    7.16    0.00   68.56    1.46    1.93    5.07    0.03    0.00    0.01    0.23    0.00     0.02    0.00    0.00    0.00
  288    0.11    0.00    2.07    0.59    0.41    0.00   66.81    1.40    2.76    3.27    0.00    0.00    0.01    0.01    0.00     0.00    0.00    0.00    0.00
  289    0.00    0.00    1.66    0.60    0.01    0.00   64.69    2.13    5.07    2.56    0.00    0.00    0.01    0.00    0.00     0.00    0.00    0.00    0.00
  290    0.00    0.00    1.34    0.62    0.00    0.00   63.07    1.65    4.81    2.13    0.00    0.00    0.01    0.00    0.00     0.00    0.00    0.00    0.00
  291    0.00    0.00    1.08    0.63    0.00    0.00   61.67    1.42    4.81    1.83    0.00    0.00    0.00    0.00    0.00     0.00    0.00    0.00    0.00
  292    1.90    0.00    0.91    0.65    0.00    0.00   61.52    1.90    4.96    1.64    0.00    0.00    0.00    0.00    0.00     0.00    0.00    0.00    0.00
  293   13.09    1.49    1.19    0.66    2.92    0.00   65.84    2.13    3.46    3.00    0.03    0.00    0.00    0.09    0.00     0.02    0.00    0.00    0.00
  294   10.41    0.95    1.48    0.68    4.92    0.00   67.34    0.53    0.72    3.15    0.00    0.00    0.01    0.17    0.00     0.02    0.00    0.00    0.00
  295   48.23   19.91    2.55    0.69   16.72    0.00   68.92    2.46    3.58   16.07    2.30    0.00    0.01    0.42    0.00     0.13    0.00    0.02    0.00
  296   27.42    8.58    3.13    0.71   12.05    0.00   67.79    2.53    4.01   13.48    0.22    0.00    0.01    0.35    0.00     0.17    0.00    0.02    0.00
  297   10.22    1.02    2.84    0.73    4.61    0.00   68.11    2.33    3.32    7.61    0.31    0.00    0.01    0.10    0.00     0.03    0.00    0.00    0.00
  298    0.55    0.00    2.29    0.75    0.40    0.00   66.67    1.52    2.80    4.71    0.00    0.00    0.01    0.01    0.00     0.01    0.00    0.00    0.00
  299    0.00    0.00    1.84    0.77    0.03    0.00   64.90    1.76    4.19    3.48    0.00    0.00    0.01    0.00    0.00     0.00    0.00    0.00    0.00
  300    7.00    0.24    1.73    0.79    1.43    0.00   66.06    2.99    5.10    3.21    0.02    0.00    0.01    0.04    0.00     0.01    0.00    0.00    0.00
  301    8.62    0.49    1.79    0.80    3.34    0.00   65.85    3.11    5.24    3.31    0.00    0.00    0.01    0.11    0.00     0.01    0.00    0.00    0.00
  302   14.96    3.80    1.80    0.82    5.14    0.00   68.05    1.54    2.01    5.49    0.84    0.00    0.01    0.09    0.00     0.02    0.00    0.00    0.00
  303   14.17    1.16    2.07    0.84    7.22    0.00   69.99    0.59    0.65    4.63    0.01    0.00    0.01    0.18    0.00     0.01    0.00    0.00    0.00
  304    0.00    0.00    1.68    0.86    0.54    0.00   68.89    0.51    0.76    3.09    0.00    0.00    0.01    0.01    0.00     0.00    0.00    0.00    0.00
   10  585.95  251.51   78.35   18.65  185.96    0.00   68.89   55.67  103.81  349.50    9.31    0.05    0.35    5.49    0.00     2.80    0.05    0.35    0.00
  305    5.09    0.07    1.64    0.87    2.76    0.00   68.54    1.23    1.48    2.87    0.00    0.00    0.01    0.10    0.00     0.00    0.00    0.00    0.00
  306    0.30    0.00    1.32    0.89    0.11    0.00   67.24    1.48    2.31    2.41    0.00    0.00    0.00    0.00    0.00     0.00    0.00    0.00    0.00
  307    0.00    0.00    1.07    0.91    0.00    0.00   65.93    1.32    2.85    2.11    0.00    0.00    0.00    0.00    0.00     0.00    0.00    0.00    0.00
  308    0.00    0.00    0.86    0.92    0.00    0.00   65.15    0.78    1.98    1.89    0.00    0.00    0.00    0.00    0.00     0.00    0.00    0.00    0.00
  309    0.00    0.00    0.70    0.94    0.00    0.00   64.06    1.11    3.06    1.72    0.00    0.00    0.00    0.00    0.00     0.00    0.00    0.00    0.00
  310    0.00    0.00    0.56    0.95    0.00    0.00   62.57    1.51    4.58    1.59    0.00    0.00    0.00    0.00    0.00     0.00    0.00    0.00    0.00
  311    0.00    0.00    0.46    0.97    0.00    0.00   61.34    1.25    4.34    1.50    0.00    0.00    0.00    0.00    0.00     0.00    0.00    0.00    0.00
  312    0.05    0.00    0.37    0.98    0.00    0.00   60.74    0.66    2.49    1.42    0.00    0.00    0.00    0.00    0.00     0.00    0.00    0.00    0.00
  313   11.03    0.94    0.64    0.99    1.43    0.00   67.28    0.48    0.63    2.38    0.03    0.00    0.00    0.04    0.00     0.01    0.00    0.00    0.00
  314   10.47    0.79    1.06    1.01    5.40    0.00   67.84    1.03    1.17    2.86    0.01    0.00    0.00    0.19    0.00     0.01    0.00    0.00    0.00
  315    5.57    0.06    1.10    1.02    2.39    0.00   69.08    0.64    0.70    2.41    0.00    0.00    0.01    0.09    0.00     0.00    0.00    0.00    0.00
  316   37.72   12.27    2.28    1.03   16.20    0.00   69.43    1.63    2.01   11.87    0.21    0.00    0.01    0.48    0.00     0.10    0.00    0.01    0.00
  317    0.99    0.01    1.86    1.05    1.41    0.00   67.52    1.20    2.01    5.22    0.00    0.00    0.01    0.03    0.00     0.02    0.00    0.00    0.00
  318    0.30    0.00    1.49    1.06    0.11    0.00   65.88    1.83    3.68    3.49    0.00    0.00    0.01    0.00    0.00     0.00    0.00    0.00    0.00
  319    6.50    0.20    1.36    1.08    1.44    0.00   68.15    1.66    2.05    3.06    0.05    0.00    0.01    0.03    0.00     0.00    0.00    0.00    0.00
  320    1.51    0.00    1.11    1.09    0.17    0.00   68.81    0.55    0.61    2.48    0.00    0.00    0.00    0.00    0.00     0.00    0.00    0.00    0.00
  321    0.00    0.00    0.90    1.10    0.02    0.00   66.57    2.23    3.72    2.16    0.00    0.00    0.00    0.00    0.00     0.00    0.00    0.00    0.00
  322    0.00    0.00    0.72    1.12    0.00    0.00   64.98    1.61    3.64    1.95    0.00    0.00    0.00    0.00    0.00     0.00    0.00    0.00    0.00
  323    0.61    0.00    0.58    1.13    0.00    0.00   65.02    0.56    0.78    1.80    0.00    0.00    0.00    0.00    0.00     0.00    0.00    0.00    0.00
  324    3.55    0.01    0.54    1.14    0.00    0.00   67.91    0.29    0.31    1.77    0.00    0.00    0.00    0.00    0.00     0.00    0.00    0.00    0.00
  325    4.18    0.03    0.65    1.15    1.71    0.00   67.86    1.46    1.82    1.91    0.00    0.00    0.00    0.06    0.00     0.00    0.00    0.00    0.00
  326    1.31    0.00    0.54    1.16    0.12    0.00   67.60    1.35    1.58    1.77    0.00    0.00    0.00    0.00    0.00     0.00    0.00    0.00    0.00
  327    0.07    0.00    0.44    1.17    0.03    0.00   66.82    0.82    1.53    1.67    0.00    0.00    0.00    0.00    0.00     0.00    0.00    0.00    0.00
  328    0.04    0.00    0.35    1.18    0.01    0.00   66.46    0.38    0.80    1.60    0.00    0.00    0.00    0.00    0.00     0.00    0.00    0.00    0.00
  329    1.14    0.01    0.30    1.19    0.09    0.00   67.15    0.22    0.38    1.57    0.01    0.00    0.00    0.00    0.00     0.00    0.00    0.00    0.00
  330   47.46   18.73    1.75    1.20   16.84    0.00   70.97    0.28    0.31   15.71    0.49    0.00    0.01    0.53    0.00     0.22    0.00    0.03    0.00
  331   38.31   14.74    2.79    1.21   16.32    0.00   70.84    0.32    0.37   17.48    0.01    0.00    0.01    0.50    0.00     0.17    0.00    0.02    0.00
  332   10.14    0.64    2.81    1.23    7.00    0.00   69.04    1.40    1.56    8.65    0.04    0.00    0.01    0.22    0.00     0.05    0.00    0.01    0.00
  333    1.83    0.00    2.31    1.24    0.89    0.00   68.69    0.93    1.14    5.40    0.00    0.00    0.01    0.03    0.00     0.02    0.00    0.00    0.00
  334   11.48    1.30    2.46    1.26    6.16    0.00   66.26    3.48    5.74    5.53    0.03    0.00    0.01    0.19    0.00     0.02    0.00    0.00    0.00
   11  199.64   49.81   35.04   32.25   80.63    0.00   66.26   33.68   59.63  118.27    0.90    0.02    0.15    2.49    0.00     0.65    0.01    0.08    0.00
  335    0.22    0.00    1.97    1.27    0.29    0.00   64.61    1.52    3.62    3.92    0.00    0.00    0.01    0.01    0.00     0.01    0.00    0.00    0.00
  336    3.64    0.23    1.67    1.29    1.30    0.00   64.40    1.70    4.02    3.50    0.06    0.00    0.01    0.03    0.00     0.00    0.00    0.00    0.00
  337   35.40   21.36    1.89    1.30    8.89    0.00   64.37    1.53    3.95   16.30    2.19    0.00    0.01    0.19    0.00     0.10    0.00    0.01    0.00
  338    3.51    0.31    1.66    1.31    2.55    0.00   64.18    0.06    0.13    7.33    0.00    0.00    0.01    0.06    0.00     0.02    0.00    0.00    0.00
  339    1.29    0.41    1.39    1.33    0.88    0.00   63.41    0.53    1.24    4.99    0.00    0.00    0.01    0.02    0.00     0.01    0.00    0.00    0.00
  340    1.16    0.33    1.17    1.34    0.63    0.00   62.54    0.89    2.59    3.93    0.00    0.00    0.00    0.01    0.00     0.00    0.00    0.00    0.00
  341    2.37    0.86    1.01    1.35    0.76    0.00   62.41    0.59    1.46    3.73    0.00    0.00    0.00    0.01    0.00     0.00    0.00    0.00    0.00
  342    1.31    0.02    0.86    1.37    0.59    0.00   62.37    0.51    1.24    2.88    0.01    0.00    0.00    0.01    0.00     0.00    0.00    0.00    0.00
  343   10.54    2.87    1.00    1.38    4.95    0.00   63.02    0.16    0.36    4.73    0.23    0.00    0.00    0.09    0.00     0.01    0.00    0.00    0.00
  344    0.00    0.00    0.83    1.39    0.49    0.00   62.01    0.47    1.28    2.95    0.00    0.00    0.00    0.01    0.00     0.00    0.00    0.00    0.00
  345    0.00    0.00    0.69    1.40    0.05    0.00   61.15    0.82    2.68    2.46    0.00    0.00    0.00    0.00    0.00     0.00    0.00    0.00    0.00
  346    0.00    0.00    0.57    1.41    0.00    0.00   60.02    1.14    4.17    2.22    0.00    0.00    0.00    0.00    0.00     0.00    0.00    0.00    0.00
  347    0.00    0.00    0.47    1.42    0.00    0.00   59.05    0.98    3.99    2.07    0.00    0.00    0.00    0.00    0.00     0.00    0.00    0.00    0.00
  348    0.00    0.00    0.39    1.43    0.00    0.00   58.12    0.96    4.23    1.96    0.00    0.00    0.00    0.00    0.00     0.00    0.00    0.00    0.00
  349    0.00    0.00    0.32    1.44    0.00    0.00   57.36    0.78    3.70    1.88    0.00    0.00    0.00    0.00    0.00     0.00    0.00    0.00    0.00
  350    0.00    0.00    0.27    1.45    0.00    0.00   56.68    0.70    3.52    1.81    0.00    0.00    0.00    0.00    0.00     0.00    0.00    0.00    0.00
  351    0.00    0.00    0.22    1.46    0.00    0.00   55.94    0.77    4.07    1.77    0.00    0.00    0.00    0.00    0.00     0.00    0.00    0.00    0.00
  352    0.02    0.00    0.18    1.47    0.00    0.00   55.32    0.65    3.58    1.73    0.00    0.00    0.00    0.00    0.00     0.00    0.00    0.00    0.00
  353    0.52    0.00    0.16    1.47    0.00    0.00   55.72    0.10    0.30    1.71    0.00    0.00    0.00    0.00    0.00     0.00    0.00    0.00    0.00
  354    2.67    0.12    0.18    1.48    0.21    0.00   57.52    0.24    0.66    1.84    0.07    0.00    0.00    0.00    0.00     0.00    0.00    0.00    0.00
  355    0.68    0.00    0.17    1.49    0.34    0.00   57.27    0.46    1.37    1.74    0.00    0.00    0.00    0.01    0.00     0.00    0.00    0.00    0.00
  356    0.35    0.00    0.14    1.49    0.07    0.00   57.02    0.51    1.49    1.71    0.00    0.00    0.00    0.00    0.00     0.00    0.00    0.00    0.00
  357    0.00    0.00    0.12    1.50    0.00    0.00   56.37    0.66    2.77    1.69    0.00    0.00    0.00    0.00    0.00     0.00    0.00    0.00    0.00
  358    0.00    0.00    0.10    1.50    0.00    0.00   56.18    0.19    0.85    1.68    0.00    0.00    0.00    0.00    0.00     0.00    0.00    0.00    0.00
  359    0.00    0.00    0.08    1.50    0.00    0.00   55.79    0.41    1.93    1.66    0.00    0.00    0.00    0.00    0.00     0.00    0.00    0.00    0.00
  360    0.13    0.00    0.07    1.51    0.00    0.00   55.48    0.45    1.70    1.65    0.00    0.00    0.00    0.00    0.00     0.00    0.00    0.00    0.00
  361    4.51    0.36    0.19    1.51    1.85    0.00   56.38    0.60    1.94    2.08    0.12    0.00    0.00    0.04    0.00     0.00    0.00    0.00    0.00
  362    1.36    0.02    0.20    1.52    0.80    0.00   56.10    0.56    1.72    1.85    0.00    0.00    0.00    0.02    0.00     0.00    0.00    0.00    0.00
  363    0.00    0.00    0.17    1.52    0.07    0.00   55.37    0.66    2.82    1.77    0.00    0.00    0.00    0.00    0.00     0.00    0.00    0.00    0.00
  364    0.00    0.00    0.14    1.52    0.01    0.00   54.78    0.60    2.86    1.74    0.00    0.00    0.00    0.00    0.00     0.00    0.00    0.00    0.00
  365    0.00    0.00    0.12    1.52    0.00    0.00   54.25    0.55    2.86    1.72    0.00    0.00    0.00    0.00    0.00     0.00    0.00    0.00    0.00
   12   69.70   26.88   18.39   44.36   24.72    0.00   54.25   20.73   73.09   92.99    2.69    0.00    0.07    0.53    0.00     0.17    0.00    0.02    0.00

 1986 1235.87  364.44  180.19  563.55  329.28    0.00   54.25  373.96 1385.57 1139.40   16.97    0.13    0.73    8.93   15.15     4.49    0.06    0.56    0.00
1
    SWAT May 26   VER 2020/Rev 681                                                  

    General Input/Output section (file.cio):                                        
    12/22/2020 12:00:00 AM ARCGIS-SWAT interface AV                                 
                                                                                    
Annual Summary for Watershed in year    3 of simulation

UNIT                                    PERCO    TILE                           WATER     SED     NO3     NO3     NO3     NO3        N       P       P
TIME     PREC    SURQ    LATQ     GWQ    LATE       Q     SW       ET     PET   YIELD   YIELD    SURQ    LATQ    PERC    CROP  ORGANIC SOLUBLE ORGANIC TILENO3
         (mm)    (mm)    (mm)    (mm)    (mm)    (mm)    (mm)    (mm)    (mm)    (mm)   (t/ha)  ------------------(kg nutrient/ha)-------------------- (kg/ha)
    1    0.00    0.00    0.10    1.53    0.00    0.00   53.80    0.45    2.50    1.70    0.00    0.00    0.00    0.00    0.00     0.00    0.00    0.00    0.00
    2    2.82    0.00    0.14    1.53    0.00    0.00   55.17    1.20    3.81    1.74    0.00    0.00    0.00    0.00    0.00     0.00    0.00    0.00    0.00
    3    0.00    0.00    0.11    1.53    0.00    0.00   54.35    0.84    4.02    1.71    0.00    0.00    0.00    0.00    0.00     0.00    0.00    0.00    0.00
    4    0.00    0.00    0.09    1.53    0.00    0.00   53.74    0.63    3.45    1.70    0.00    0.00    0.00    0.00    0.00     0.00    0.00    0.00    0.00
    5    0.00    0.00    0.08    1.53    0.00    0.00   53.07    0.69    4.06    1.68    0.00    0.00    0.00    0.00    0.00     0.00    0.00    0.00    0.00
    6    5.98    0.06    0.19    1.53    0.00    0.00   57.41    0.96    2.16    1.85    0.00    0.00    0.00    0.00    0.00     0.00    0.00    0.00    0.00
    7    0.00    0.00    0.15    1.53    0.00    0.00   57.07    0.34    1.21    1.76    0.00    0.00    0.00    0.00    0.00     0.00    0.00    0.00    0.00
    8    0.00    0.00    0.12    1.53    0.00    0.00   56.65    0.43    1.73    1.73    0.00    0.00    0.00    0.00    0.00     0.00    0.00    0.00    0.00
    9    0.00    0.00    0.10    1.53    0.00    0.00   56.21    0.45    1.99    1.70    0.00    0.00    0.00    0.00    0.00     0.00    0.00    0.00    0.00
   10    0.00    0.00    0.08    1.53    0.00    0.00   55.73    0.49    2.31    1.68    0.00    0.00    0.00    0.00    0.00     0.00    0.00    0.00    0.00
   11    0.00    0.00    0.06    1.53    0.00    0.00   55.41    0.32    1.58    1.67    0.00    0.00    0.00    0.00    0.00     0.00    0.00    0.00    0.00
   12    0.12    0.00    0.05    1.53    0.00    0.00   55.23    0.30    1.45    1.65    0.00    0.00    0.00    0.00    0.00     0.00    0.00    0.00    0.00
   13    0.66    0.00    0.05    1.52    0.00    0.00   55.55    0.29    0.96    1.65    0.00    0.00    0.00    0.00    0.00     0.00    0.00    0.00    0.00
   14    0.00    0.00    0.04    1.52    0.00    0.00   55.25    0.30    1.34    1.64    0.00    0.00    0.00    0.00    0.00     0.00    0.00    0.00    0.00
   15    0.00    0.00    0.03    1.52    0.00    0.00   54.75    0.52    2.46    1.63    0.00    0.00    0.00    0.00    0.00     0.00    0.00    0.00    0.00
   16    8.75    0.34    0.22    1.52    0.00    0.00   60.55    1.68    3.02    2.08    0.03    0.00    0.00    0.00    0.00     0.02    0.00    0.00    0.00
   17    1.52    0.00    0.20    1.52    0.00    0.00   60.98    0.97    1.34    1.84    0.00    0.00    0.00    0.00    0.00     0.00    0.00    0.00    0.00
   18    0.00    0.00    0.16    1.51    0.00    0.00   59.47    1.54    3.75    1.76    0.00    0.00    0.00    0.00    0.00     0.00    0.00    0.00    0.00
   19    0.70    0.00    0.13    1.51    0.00    0.00   59.49    0.63    1.45    1.73    0.00    0.00    0.00    0.00    0.00     0.00    0.00    0.00    0.00
   20    0.00    0.00    0.11    1.51    0.00    0.00   58.73    0.78    2.29    1.69    0.00    0.00    0.00    0.00    0.00     0.00    0.00    0.00    0.00
   21    0.00    0.00    0.08    1.50    0.00    0.00   57.79    0.95    3.13    1.66    0.00    0.00    0.00    0.00    0.00     0.00    0.00    0.00    0.00
   22    0.66    0.00    0.07    1.50    0.00    0.00   57.08    1.34    4.22    1.65    0.00    0.00    0.00    0.00    0.00     0.00    0.00    0.00    0.00
   23    0.01    0.00    0.06    1.50    0.00    0.00   55.84    1.27    4.79    1.63    0.00    0.00    0.00    0.00    0.00     0.00    0.00    0.00    0.00
   24    0.00    0.00    0.05    1.49    0.00    0.00   54.98    0.88    3.74    1.61    0.00    0.00    0.00    0.00    0.00     0.00    0.00    0.00    0.00
   25    4.17    0.01    0.11    1.49    0.00    0.00   58.34    0.41    0.57    1.69    0.00    0.00    0.00    0.00    0.00     0.00    0.00    0.00    0.00
   26    0.47    0.00    0.10    1.48    0.00    0.00   58.33    0.45    0.82    1.65    0.00    0.00    0.00    0.00    0.00     0.00    0.00    0.00    0.00
   27    0.88    0.01    0.09    1.48    0.00    0.00   58.96    0.18    0.33    1.64    0.00    0.00    0.00    0.00    0.00     0.00    0.00    0.00    0.00
   28    0.00    0.00    0.07    1.47    0.00    0.00   58.30    0.66    1.44    1.62    0.00    0.00    0.00    0.00    0.00     0.00    0.00    0.00    0.00
   29    0.00    0.00    0.06    1.47    0.00    0.00   57.63    0.69    1.90    1.60    0.00    0.00    0.00    0.00    0.00     0.00    0.00    0.00    0.00
   30    0.00    0.00    0.05    1.46    0.00    0.00   56.74    0.90    3.00    1.58    0.00    0.00    0.00    0.00    0.00     0.00    0.00    0.00    0.00
   31    0.00    0.00    0.04    1.46    0.00    0.00   56.09    0.67    2.46    1.57    0.00    0.00    0.00    0.00    0.00     0.00    0.00    0.00    0.00
    1   26.74    0.43    2.99   46.78    0.00    0.00   56.09   22.19   73.29   52.48    0.04    0.00    0.01    0.00    0.00     0.04    0.00    0.00    0.00
   32    0.00    0.00    0.03    1.45    0.00    0.00   55.19    0.93    3.64    1.56    0.00    0.00    0.00    0.00    0.00     0.00    0.00    0.00    0.00
   33    0.00    0.00    0.02    1.45    0.00    0.00   54.71    0.48    2.05    1.54    0.00    0.00    0.00    0.00    0.00     0.00    0.00    0.00    0.00
   34    0.00    0.00    0.02    1.44    0.00    0.00   54.50    0.22    0.99    1.53    0.00    0.00    0.00    0.00    0.00     0.00    0.00    0.00    0.00
   35    0.00    0.00    0.02    1.44    0.00    0.00   54.36    0.13    0.63    1.53    0.00    0.00    0.00    0.00    0.00     0.00    0.00    0.00    0.00
   36    0.00    0.00    0.01    1.43    0.00    0.00   54.13    0.23    1.08    1.52    0.00    0.00    0.00    0.00    0.00     0.00    0.00    0.00    0.00
   37    0.15    0.00    0.01    1.42    0.00    0.00   53.55    0.75    3.37    1.51    0.00    0.00    0.00    0.00    0.00     0.00    0.00    0.00    0.00
   38    0.04    0.00    0.01    1.42    0.00    0.00   53.24    0.35    1.63    1.50    0.00    0.00    0.00    0.00    0.00     0.00    0.00    0.00    0.00
   39    0.08    0.00    0.01    1.41    0.00    0.00   52.66    0.67    3.25    1.50    0.00    0.00    0.00    0.00    0.00     0.00    0.00    0.00    0.00
   40    0.00    0.00    0.01    1.41    0.00    0.00   51.80    0.89    4.59    1.49    0.00    0.00    0.00    0.00    0.00     0.00    0.00    0.00    0.00
   41    0.00    0.00    0.01    1.40    0.00    0.00   51.17    0.65    3.61    1.48    0.00    0.00    0.00    0.00    0.00     0.00    0.00    0.00    0.00
   42    0.00    0.00    0.01    1.39    0.00    0.00   50.42    0.77    4.54    1.47    0.00    0.00    0.00    0.00    0.00     0.00    0.00    0.00    0.00
   43    0.02    0.00    0.01    1.39    0.00    0.00   49.97    0.48    2.92    1.46    0.00    0.00    0.00    0.00    0.00     0.00    0.00    0.00    0.00
   44    0.00    0.00    0.00    1.38    0.00    0.00   49.52    0.46    2.97    1.46    0.00    0.00    0.00    0.00    0.00     0.00    0.00    0.00    0.00
   45    0.00    0.00    0.00    1.37    0.00    0.00   48.96    0.57    3.75    1.45    0.00    0.00    0.00    0.00    0.00     0.00    0.00    0.00    0.00
   46    0.00    0.00    0.00    1.37    0.00    0.00   48.31    0.67    4.57    1.44    0.00    0.00    0.00    0.00    0.01     0.00    0.00    0.00    0.00
   47    1.22    0.00    0.02    1.36    0.00    0.00   48.15    1.32    4.74    1.45    0.00    0.00    0.00    0.00    0.06     0.00    0.00    0.00    0.00
   48    0.00    0.00    0.02    1.35    0.00    0.00   47.20    0.98    4.99    1.44    0.00    0.00    0.00    0.00    0.39     0.00    0.00    0.00    0.00
   49    0.00    0.00    0.01    1.35    0.00    0.00   46.31    0.91    5.19    1.43    0.00    0.00    0.00    0.00    0.43     0.00    0.00    0.00    0.00
   50    0.03    0.00    0.01    1.34    0.00    0.00   45.54    0.82    5.01    1.42    0.00    0.00    0.00    0.00    0.45     0.00    0.00    0.00    0.00
   51    0.00    0.00    0.01    1.33    0.00    0.00   44.79    0.78    4.88    1.41    0.00    0.00    0.00    0.00    0.45     0.00    0.00    0.00    0.00
   52    0.09    0.00    0.01    1.33    0.00    0.00   44.19    0.71    4.55    1.40    0.00    0.00    0.00    0.00    0.45     0.00    0.00    0.00    0.00
   53    0.03    0.00    0.01    1.32    0.00    0.00   43.39    0.85    5.31    1.39    0.00    0.00    0.00    0.00    0.44     0.00    0.00    0.00    0.00
   54    0.08    0.00    0.01    1.31    0.00    0.00   42.66    0.83    5.00    1.39    0.00    0.00    0.00    0.00    0.40     0.00    0.00    0.00    0.00
   55    0.00    0.00    0.00    1.30    0.00    0.00   41.98    0.70    4.48    1.38    0.00    0.00    0.00    0.00    0.37     0.00    0.00    0.00    0.00
   56    0.00    0.00    0.00    1.30    0.00    0.00   41.25    0.75    4.78    1.37    0.00    0.00    0.00    0.00    0.36     0.00    0.00    0.00    0.00
   57    0.00    0.00    0.00    1.29    0.00    0.00   40.53    0.73    4.26    1.36    0.00    0.00    0.00    0.00    0.25     0.00    0.00    0.00    0.00
   58    0.00    0.00    0.00    1.28    0.00    0.00   40.03    0.50    2.53    1.35    0.00    0.00    0.00    0.00    0.08     0.00    0.00    0.00    0.00
   59    7.86    0.06    0.16    1.27    0.00    0.00   46.69    0.33    0.47    1.56    0.01    0.00    0.00    0.00    0.04     0.00    0.00    0.00    0.00
    2    9.61    0.06    0.44   38.31    0.00    0.00   46.69   18.48   99.78   40.80    0.01    0.00    0.00    0.00    4.17     0.00    0.00    0.00    0.00
   60    5.76    0.04    0.26    1.27    0.00    0.00   50.84    0.94    1.22    1.63    0.00    0.00    0.00    0.00    0.09     0.00    0.00    0.00    0.00
   61   11.72    0.40    0.49    1.26    0.00    0.00   60.41    0.30    0.30    2.15    0.11    0.00    0.00    0.00    0.04     0.04    0.00    0.00    0.00
   62   10.45    0.44    0.80    1.25    0.25    0.00   66.38    1.74    1.93    2.50    0.01    0.00    0.00    0.01    0.21     0.03    0.00    0.00    0.00
   63    7.33    0.28    0.97    1.25    2.53    0.00   66.60    2.65    3.51    2.57    0.01    0.00    0.00    0.11    0.22     0.01    0.00    0.00    0.00
   64    0.00    0.00    0.77    1.24    0.12    0.00   64.09    2.41    4.41    2.14    0.00    0.00    0.00    0.00    0.37     0.00    0.00    0.00    0.00
   65    0.44    0.00    0.62    1.23    0.00    0.00   62.10    2.42    5.11    1.94    0.00    0.00    0.00    0.00    0.46     0.00    0.00    0.00    0.00
   66    0.26    0.00    0.49    1.22    0.00    0.00   59.79    2.59    5.94    1.79    0.00    0.00    0.00    0.00    0.65     0.00    0.00    0.00    0.00
   67   11.45    0.51    0.63    1.22    0.24    0.00   65.95    3.28    4.20    2.33    0.04    0.00    0.00    0.00    0.52     0.02    0.00    0.00    0.00
   68    0.00    0.00    0.50    1.21    0.00    0.00   63.33    2.64    4.68    1.85    0.00    0.00    0.00    0.00    0.60     0.00    0.00    0.00    0.00
   69    0.00    0.00    0.40    1.20    0.00    0.00   60.85    2.51    5.44    1.69    0.00    0.00    0.00    0.00    0.57     0.00    0.00    0.00    0.00
   70    0.00    0.00    0.32    1.20    0.00    0.00   58.42    2.45    5.84    1.59    0.00    0.00    0.00    0.00    0.70     0.00    0.00    0.00    0.00
   71    0.00    0.00    0.26    1.19    0.00    0.00   55.73    2.73    6.72    1.52    0.00    0.00    0.00    0.00    0.67     0.00    0.00    0.00    0.00
   72    0.00    0.00    0.21    1.18    0.00    0.00   53.44    2.31    5.93    1.46    0.00    0.00    0.00    0.00    0.67     0.00    0.00    0.00    0.00
   73    0.00    0.00    0.17    1.17    0.00    0.00   51.23    2.24    5.77    1.41    0.00    0.00    0.00    0.00    0.42     0.00    0.00    0.00    0.00
   74    0.00    0.00    0.13    1.17    0.00    0.00   49.47    1.79    4.36    1.37    0.00    0.00    0.00    0.00    0.35     0.00    0.00    0.00    0.00
   75    0.00    0.00    0.11    1.16    0.00    0.00   47.81    1.68    4.78    1.33    0.00    0.00    0.00    0.00    0.26     0.00    0.00    0.00    0.00
   76    0.00    0.00    0.09    1.15    0.00    0.00   45.53    2.29    5.11    1.30    0.00    0.00    0.00    0.00    0.33     0.00    0.00    0.00    0.00
   77    5.27    0.03    0.17    1.14    0.00    0.00   47.44    2.84    5.12    1.40    0.01    0.00    0.00    0.00    0.14     0.00    0.00    0.00    0.00
   78    0.00    0.00    0.13    1.14    0.00    0.00   44.98    2.48    4.73    1.34    0.00    0.00    0.00    0.00    0.08     0.00    0.00    0.00    0.00
   79    0.00    0.00    0.11    1.13    0.00    0.00   42.17    2.83    5.67    1.30    0.00    0.00    0.00    0.00    0.13     0.00    0.00    0.00    0.00
   80    0.00    0.00    0.09    1.12    0.00    0.00   40.35    1.83    3.92    1.27    0.00    0.00    0.00    0.00    0.11     0.00    0.00    0.00    0.00
   81    0.00    0.00    0.07    1.12    0.00    0.00   38.65    1.71    4.40    1.25    0.00    0.00    0.00    0.00    0.11     0.00    0.00    0.00    0.00
   82    0.00    0.00    0.06    1.11    0.00    0.00   37.04    1.63    4.60    1.23    0.00    0.00    0.00    0.00    0.11     0.00    0.00    0.00    0.00
   83    0.00    0.00    0.05    1.10    0.00    0.00   34.92    2.14    4.22    1.21    0.00    0.00    0.00    0.00    0.09     0.00    0.00    0.00    0.00
   84    0.00    0.00    0.04    1.09    0.00    0.00   32.47    2.47    5.74    1.19    0.00    0.00    0.00    0.00    0.20     0.00    0.00    0.00    0.00
   85    0.59    0.00    0.04    1.09    0.00    0.00   32.59    0.43    0.77    1.18    0.00    0.00    0.00    0.00    0.07     0.00    0.00    0.00    0.00
   86    2.37    0.00    0.07    1.08    0.00    0.00   33.12    1.63    2.59    1.21    0.00    0.00    0.00    0.00    0.14     0.00    0.00    0.00    0.00
   87    0.76    0.00    0.07    1.07    0.00    0.00   31.49    2.38    4.60    1.20    0.00    0.00    0.00    0.00    0.25     0.00    0.00    0.00    0.00
   88    0.00    0.00    0.05    1.06    0.00    0.00   28.71    2.79    5.90    1.18    0.00    0.00    0.00    0.00    0.17     0.00    0.00    0.00    0.00
   89    0.00    0.00    0.04    1.06    0.00    0.00   26.00    2.74    7.23    1.16    0.00    0.00    0.00    0.00    0.17     0.00    0.00    0.00    0.00
   90    0.00    0.00    0.03    1.05    0.00    0.00   23.38    2.65    6.59    1.14    0.00    0.00    0.00    0.00    0.24     0.00    0.00    0.00    0.00
    3   56.41    1.69    8.21   35.92    3.13    0.00   23.38   67.53  141.34   47.85    0.18    0.00    0.01    0.13    9.13     0.11    0.00    0.01    0.00
   91    0.00    0.00    0.03    1.04    0.00    0.00   20.90    2.49    5.66    1.13    0.00    0.00    0.00    0.00    0.20     0.00    0.00    0.00    0.00
   92    0.00    0.00    0.02    1.03    0.00    0.00   18.17    2.77    6.86    1.12    0.00    0.00    0.00    0.00    0.14     0.00    0.00    0.00    0.00
   93    0.77    0.00    0.03    1.03    0.00    0.00   17.38    1.51    3.10    1.12    0.00    0.00    0.00    0.00    0.19     0.00    0.00    0.00    0.00
   94    0.00    0.00    0.02    1.02    0.00    0.00   14.89    2.50    5.43    1.10    0.00    0.00    0.00    0.00    0.07     0.00    0.00    0.00    0.00
   95    0.00    0.00    0.02    1.01    0.00    0.00   13.61    1.30    5.05    1.09    0.00    0.00    0.00    0.00    0.09     0.00    0.00    0.00    0.00
   96    0.00    0.00    0.01    1.01    0.00    0.00   12.65    0.97    4.79    1.08    0.00    0.00    0.00    0.00    0.08     0.00    0.00    0.00    0.00
   97    0.00    0.00    0.01    1.00    0.00    0.00   11.92    0.75    4.81    1.07    0.00    0.00    0.00    0.00    0.06     0.00    0.00    0.00    0.00
   98    0.00    0.00    0.01    0.99    0.00    0.00   11.20    0.74    5.38    1.06    0.00    0.00    0.00    0.00    0.07     0.00    0.00    0.00    0.00
   99    2.97    0.09    0.04    0.98    0.00    0.00   12.88    0.96    4.45    1.17    0.04    0.00    0.00    0.00    0.08     0.01    0.00    0.00    0.00
  100    4.09    0.20    0.11    0.98    0.00    0.00   15.10    1.20    4.46    1.33    0.07    0.00    0.00    0.00    0.06     0.03    0.00    0.00    0.00
  101    0.00    0.00    0.09    0.97    0.00    0.00   13.96    1.17    6.03    1.14    0.00    0.00    0.00    0.00    0.05     0.00    0.00    0.00    0.00
  102    0.00    0.00    0.07    0.96    0.00    0.00   13.01    0.97    5.62    1.10    0.00    0.00    0.00    0.00    0.04     0.00    0.00    0.00    0.00
[...]
    635  39   MUNALIT    .468E-01   94.00   70.00    3.00    0.00    0.00    0.00    0.23 2108.52 1674.89   78.66  333.64   70.33    1.62   30.99    0.00    0.00 1674.89
    636  39   MUNALIT    .270E-02   94.00   70.00    0.42    0.00    0.00    0.00    0.23 2108.52 1677.19   72.06  338.47    4.05    1.24   24.42    0.00    0.00 1677.20
    637  39   XAFERRIT   .171E-01   86.00   70.00    0.46    0.00    0.00    0.00    0.23 2108.52 1360.72  348.21  384.79    4.50    0.27   25.73    0.00    0.00 1360.73
    638  39   XAFERRIT   .558E-01   86.00   70.00    2.45    0.00    0.00    0.00    0.23 2108.52 1358.52  353.06  381.93   48.33    0.51   31.55    0.00    0.00 1358.52
    639  39   XAMMUN     .120E+00   94.00   70.00    0.54    0.00    0.00    0.00    0.23 2108.52 1677.17   72.11  338.43    8.34    1.23   31.06    0.00    0.00 1677.18
    640  39   XAMMUN     .198E+01   94.00   70.00    3.52    0.00    0.00    0.00    0.23 2108.52 1670.80   89.81  325.32  133.44    2.27   30.90    0.00    0.00 1670.80
    641  39   MUNALIT    .329E+02   77.00   70.00    8.15    0.00    0.00    0.00    0.23 2108.52 1032.55  650.25  410.48    0.94    0.94    6.42    9.79    6.85 1032.55
    642  39   MUNALIT    .828E-01   77.00   70.00    0.52    0.00    0.00    0.00    0.23 2108.52 1048.10  613.54  435.26    0.02    0.12    0.21   10.28    7.20 1048.10
    643  39   XAFERRIT   .450E-02   55.00   70.00    0.60    0.00    0.00    0.00    0.23 2108.52  583.08 1091.11  438.22    0.01    0.03    0.10   10.04    7.03  583.08
    644  39   XAFERRIT   .144E+00   55.00   70.00    7.62    0.00    0.00    0.00    0.23 2108.52  547.98 1130.29  423.13    0.37    0.62    2.34    9.86    6.90  547.98
    645  39   XAMMUN     .538E+02   77.00   70.00    7.52    0.00    0.00    0.00    0.23 2108.52 1033.11  648.73  411.60    0.75    0.91    5.89    9.81    6.87 1033.11
    646  39   XAMMUN     .204E+00   77.00   70.00    0.50    0.00    0.00    0.00    0.23 2108.52 1048.11  613.53  435.27    0.02    0.12    0.23   10.28    7.20 1048.11
    647  40   XAFERRIT   .189E-01   92.00   70.00    0.54    0.00    0.00    0.00    0.23 2108.52    0.00    0.00 1365.68    0.00    0.00    0.00    0.00    0.00    0.00
    648  40   XAFERRIT   .111E+00   92.00   70.00    2.36    0.00    0.00    0.00    0.23 2108.52    0.00    0.00 1365.68    0.00    0.00    0.00    0.00    0.00    0.00
    649  40   XAMMUN     .360E-02   92.00   70.00    0.35    0.00    0.00    0.00    0.23 2108.52    0.00    0.00 1365.68    0.00    0.00    0.00    0.00    0.00    0.00
    650  40   XAMMUN     .153E-01   92.00   70.00    1.93    0.00    0.00    0.00    0.23 2108.52    0.00    0.00 1365.68    0.00    0.00    0.00    0.00    0.00    0.00
    651  40   XAFERRIT   .747E-01   59.00   70.00    0.52    0.00  137.48    0.00    0.23 2108.52  655.50 1014.61  440.80    1.49    0.10   13.09   10.79    7.61  655.50
    652  40   XAFERRIT   .528E+00   59.00   70.00    3.78    0.00  135.46    0.00    0.23 2108.52  642.72 1028.25  434.78   23.03    0.96   36.31   10.55    7.44  642.72
    653  40   XAMMUN     .522E-01   79.00   70.00    0.42    0.00  135.32    0.00    0.23 2108.52 1104.47  555.43  436.67    1.73    0.89   14.82   10.73    7.57 1104.47
    654  40   XAMMUN     .120E+00   79.00   70.00    2.29    0.00  133.60    0.00    0.23 2108.52 1100.17  564.85  432.05   17.45    1.58   34.77   10.52    7.42 1100.17
    655  40   XAFERRIT   .103E+01   69.00   70.00    2.95    0.00    0.00    0.00    0.23 2108.52  857.26  804.28  440.37   29.67    0.16   39.51    1.76    1.24  857.26
    656  40   XAFERRIT   .290E+00   69.00   70.00    0.44    0.00    0.00    0.00    0.23 2108.52  864.33  793.83  444.72    2.09    0.04   17.37    1.78    1.26  864.34
    657  40   XAMMUN     .177E+00   84.00   70.00    0.50    0.00    0.00    0.00    0.23 2108.52 1255.62  402.48  437.73    3.15    0.13   23.03    1.90    1.35 1255.64
    658  40   XAMMUN     .860E+00   84.00   70.00    2.19    0.00    0.00    0.00    0.23 2108.52 1252.99  407.76  434.74   27.29    0.20   39.68    1.88    1.33 1252.99
    659  40   XAFERRIT   .126E-01   77.00   70.00    0.58    0.00   86.73    0.00    0.23 2108.52 1065.43  614.45  416.37    1.82    1.45   17.41    9.79    2.89 1065.44
    660  40   XAFERRIT   .722E+00   77.00   70.00    4.03    0.00   86.66    0.00    0.23 2108.52 1053.16  635.50  406.68   35.71    3.59   42.65    9.50    2.77 1053.16
    661  40   XAMMUN     .684E-01   87.00   70.00    0.48    0.00   80.86    0.00    0.23 2108.52 1364.61  321.40  406.43    2.29    3.43   20.46    9.52    2.79 1364.62
    662  40   XAMMUN     .658E+00   87.00   70.00    3.47    0.00   81.98    0.00    0.23 2108.52 1359.03  333.17  399.55   36.40    4.96   42.48    9.36    2.72 1359.03
    663  40   XAFERRIT   .247E+00   86.00   70.00    0.50    0.00    0.00    0.00    0.23 2108.52 1360.72  348.31  384.70    6.76    0.27   29.76    0.00    0.00 1360.73
    664  40   XAFERRIT   .443E+01   86.00   70.00    3.03    0.00    0.00    0.00    0.23 2108.52 1355.26  359.40  377.55   97.93    0.97   30.81    0.00    0.00 1355.26
    665  40   XAMMUN     .220E+01   94.00   70.00    3.03    0.00    0.00    0.00    0.23 2108.52 1674.22   80.56  332.21  109.05    1.73   30.86    0.00    0.00 1674.22
    666  40   XAMMUN     .281E+00   94.00   70.00    0.52    0.00    0.00    0.00    0.23 2108.52 1677.20   72.13  338.38    8.82    1.22   31.37    0.00    0.00 1677.21
    667  40   XAFERRIT   .477E-01   55.00   70.00    0.48    0.00    0.00    0.00    0.23 2108.52  583.17 1091.09  438.13    0.01    0.03    0.10   10.05    7.03  583.18
    668  40   XAFERRIT   .141E+02   55.00   70.00    7.23    0.00    0.00    0.00    0.23 2108.52  548.86 1129.28  423.45    0.44    0.60    3.34    9.87    6.91  548.86
    669  40   XAMMUN     .243E-01   77.00   70.00    0.54    0.00    0.00    0.00    0.23 2108.52 1048.12  613.65  435.14    0.02    0.12    0.19   10.28    7.20 1048.12
    670  40   XAMMUN     .614E+01   77.00   70.00    6.93    0.00    0.00    0.00    0.23 2108.52 1033.66  647.43  412.56    0.82    0.88    5.07    9.84    6.89 1033.66
    671  41   XAMMUN     .900E-03   92.00   70.00    2.01    0.00    0.00    0.00    0.23 2108.52    0.00    0.00 1365.68    0.00    0.00    0.00    0.00    0.00    0.00
    672  41   XAMMUN     .450E-02   79.00   70.00    1.25    0.00  134.62    0.00    0.23 2108.52 1103.89  556.05  436.70    4.92    0.95   26.49   10.65    7.51 1103.89
    673  41   XAMMUN     .180E-02   79.00   70.00    0.80    0.00  134.69    0.00    0.23 2108.52 1104.22  555.35  437.05    2.35    0.90   18.08   10.67    7.52 1104.23
    674  41   XAMMUN     .648E-01   84.00   70.00    5.17    0.00    0.00    0.00    0.23 2108.52 1240.92  432.02  419.79   53.61    0.59   37.91    1.91    1.35 1240.92
    675  41   XAMMUN     .810E-02   84.00   70.00    0.52    0.00    0.00    0.00    0.23 2108.52 1255.16  402.11  438.57    2.28    0.13   18.49    1.90    1.34 1255.17
    676  41   XAMMUN     .194E+00   87.00   70.00    4.94    0.00   77.52    0.00    0.23 2108.52 1351.76  347.65  390.89   46.80    6.43   42.58    8.96    2.56 1351.77
    677  41   XAMMUN     .360E-02   87.00   70.00    0.30    0.00   80.13    0.00    0.23 2108.52 1364.48  320.84  407.05    0.99    3.45   10.60    9.45    2.77 1364.50
    678  41   XAMMUN     .113E+00   94.00   70.00    3.75    0.00    0.00    0.00    0.23 2108.52 1670.51   90.40  324.94  101.96    2.31   30.86    0.00    0.00 1670.51
    679  41   XAMMUN     .900E-02   94.00   70.00    0.42    0.00    0.00    0.00    0.23 2108.52 1677.14   71.98  338.58    4.68    1.24   26.07    0.00    0.00 1677.16
    680  41   MUNALIT    .117E+02   77.00   70.00    6.15    0.00    0.00    0.00    0.23 2108.52 1034.31  645.22  414.32    0.63    0.83    4.59    9.86    6.90 1034.31
    681  41   MUNALIT    .639E-01   77.00   70.00    0.50    0.00    0.00    0.00    0.23 2108.52 1048.06  613.34  435.49    0.02    0.12    0.20   10.27    7.19 1048.06
    682  41   XAMMUN     .121E+00   77.00   70.00    0.54    0.00    0.00    0.00    0.23 2108.52 1048.05  613.37  435.48    0.02    0.12    0.23   10.27    7.19 1048.05
    683  41   XAMMUN     .290E+02   77.00   70.00    6.70    0.00    0.00    0.00    0.23 2108.52 1033.79  646.52  413.28    0.53    0.86    4.72    9.84    6.88 1033.80
    684  42   XAMMUN     .270E-02   92.00   70.00    0.33    0.00    0.00    0.00    0.23 2108.52    0.00    0.00 1365.68    0.00    0.00    0.00    0.00    0.00    0.00
    685  42   XAMMUN     .164E+00   79.00   70.00    2.27    0.00  134.77    0.00    0.23 2108.52 1103.64  556.77  436.27   14.11    0.99   34.68   10.65    7.51 1103.64
    686  42   XAMMUN     .675E-01   79.00   70.00    0.56    0.00  134.82    0.00    0.23 2108.52 1104.32  555.29  436.98    2.46    0.89   18.90   10.68    7.53 1104.32
    687  42   XAMMUN     .455E+00   84.00   70.00    0.48    0.00    0.00    0.00    0.23 2108.52 1255.30  402.18  438.35    3.38    0.13   24.04    1.90    1.34 1255.32
    688  42   XAMMUN     .158E+01   84.00   70.00    2.92    0.00    0.00    0.00    0.23 2108.52 1250.54  411.68  432.87   41.60    0.26   38.96    1.87    1.32 1250.54
    689  42   XAMMUN     .833E+00   87.00   70.00    4.19    0.00   78.33    0.00    0.23 2108.52 1352.98  345.37  392.13   46.75    6.21   42.60    9.03    2.59 1352.98
    690  42   XAMMUN     .225E-01   87.00   70.00    0.52    0.00   80.54    0.00    0.23 2108.52 1364.48  321.17  406.79    2.20    3.43   19.86    9.47    2.78 1364.49
    691  42   XAMMUN     .221E+01   94.00   70.00    3.35    0.00    0.00    0.00    0.23 2108.52 1673.97   80.98  331.96  123.49    1.76   30.88    0.00    0.00 1673.97
    692  42   XAMMUN     .138E+00   94.00   70.00    0.54    0.00    0.00    0.00    0.23 2108.52 1677.15   72.06  338.50    8.48    1.23   31.15    0.00    0.00 1677.16
    693  42   MUNALIT    .385E+01   77.00   70.00    9.87    0.00    0.00    0.00    0.23 2108.52 1030.96  654.28  407.63    1.22    1.03    6.73    9.72    6.80 1030.96
    694  42   MUNALIT    .902E-03   77.00   70.00    0.72    0.00    0.00    0.00    0.23 2108.52 1048.02  613.55  435.35    0.01    0.12    0.14   10.27    7.19 1048.02
    695  42   XAFERRIT   .113E+00   55.00   70.00    9.31    0.00    0.00    0.00    0.23 2108.52  544.36 1134.90  421.39    0.44    0.69    2.75    9.82    6.88  544.36
    696  42   XAMMUN     .552E+02   77.00   70.00    7.16    0.00    0.00    0.00    0.23 2108.52 1033.40  647.75  412.37    0.65    0.89    5.46    9.82    6.87 1033.40
    697  42   XAMMUN     .217E+00   77.00   70.00    0.50    0.00    0.00    0.00    0.23 2108.52 1048.08  613.42  435.40    0.02    0.12    0.23   10.28    7.19 1048.08
    698  43   MUNALIT    .990E-02   92.00   70.00   21.18    0.00    0.00    0.00    0.23 2108.52    0.00    0.00 1365.68    0.00    0.00    0.00    0.00    0.00    0.00
    699  43   XAMMUN     .284E+00   79.00   70.00    3.32    0.00  132.01    0.00    0.23 2108.52 1097.34  569.36  429.68   28.68    1.97   35.01   10.34    7.30 1097.34
    700  43   XAMMUN     .189E-01   79.00   70.00    0.67    0.00  134.68    0.00    0.23 2108.52 1104.24  555.24  437.13    2.59    0.89   19.44   10.66    7.52 1104.24
    701  43   MUNALIT    .901E-03   84.00   70.00    0.72    0.00    0.00    0.00    0.23 2108.52 1255.07  402.18  438.60    2.50    0.13   19.65    1.90    1.34 1255.08
    702  43   MUNALIT    .891E-01   84.00   70.00   15.05    0.00    0.00    0.00    0.23 2108.52 1228.23  460.78  401.37  159.46    0.85   33.44    1.95    1.39 1228.23
    703  43   XAMMUN     .436E+00   84.00   70.00    0.46    0.00    0.00    0.00    0.23 2108.52 1255.14  402.03  438.66    3.22    0.13   23.32    1.90    1.34 1255.16
    704  43   XAMMUN     .985E+01   84.00   70.00    3.17    0.00    0.00    0.00    0.23 2108.52 1243.88  425.12  424.41   55.50    0.48   37.70    1.89    1.34 1243.88
    705  43   MUNALIT    .238E+00   87.00   70.00    4.84    0.00   77.54    0.00    0.23 2108.52 1351.89  347.29  391.10   47.08    6.40   42.58    8.95    2.56 1351.89
    706  43   XAMMUN     .522E-01   87.00   70.00    0.52    0.00   80.38    0.00    0.23 2108.52 1364.41  321.04  406.97    2.43    3.41   21.27    9.44    2.77 1364.42
    707  43   XAMMUN     .102E+02   87.00   70.00    5.03    0.00   78.20    0.00    0.23 2108.52 1351.62  347.96  390.71   69.95    6.26   43.13    8.94    2.55 1351.62
    708  43   MUNALIT    .173E+00   77.00   70.00    0.52    0.00    0.00    0.00    0.23 2108.52 1048.04  613.33  435.53    0.02    0.12    0.23   10.27    7.19 1048.05
    709  43   MUNALIT    .378E+02   77.00   70.00    8.09    0.00    0.00    0.00    0.23 2108.52 1032.54  649.94  410.81    0.92    0.94    6.43    9.78    6.85 1032.54
    710  43   XAMMUN     .191E+00   77.00   70.00    0.52    0.00    0.00    0.00    0.23 2108.52 1048.04  613.33  435.53    0.02    0.12    0.24   10.27    7.19 1048.05
    711  43   XAMMUN     .577E+02   77.00   70.00    6.62    0.00    0.00    0.00    0.23 2108.52 1033.85  646.40  413.46    0.66    0.86    5.33    9.83    6.88 1033.85



                AVE MONTHLY BASIN VALUES
                   SNOW                      WATER               SED
  MON     RAIN     FALL   SURF Q    LAT Q    YIELD       ET    YIELD      PET
          (MM)     (MM)     (MM)     (MM)     (MM)     (MM)   (T/HA)     (MM)
    1    43.95     0.01     4.96     8.24    91.02    24.10     0.24    73.80
    2    19.00     0.00     1.46     2.25    71.73    20.74     0.18    91.56
    3    19.61     0.00     0.47     2.44    65.95    46.10     0.09   120.16
    4    30.17     0.00     0.72     2.22    52.65    30.76     0.23   146.58
    5   130.14     0.00    24.82    15.17    79.76    53.18     1.39   147.80
    6    55.40     0.00     4.41     8.63    42.95    49.31     0.63   144.32
    7    56.33     0.00     4.44     7.03    35.20    41.98     0.87   146.72
    8    88.94     0.00     7.53    10.88    36.91    37.22     0.98   143.34
    9   252.99     0.00    62.20    37.68   113.98    48.68     1.80   124.43
   10   746.39     0.00   397.37    88.48   510.82    47.94     7.09    98.62
   11   490.78     0.00   225.16    71.29   347.23    32.77     4.56    60.49
   12   116.64     0.08    48.60    24.16   143.43    24.24     0.90    60.11

     AVE ANNUAL BASIN STRESS DAYS
               WATER STRESS DAYS =    57.33
               TEMPERATURE STRESS DAYS =     0.97
               NITROGEN STRESS DAYS =    16.59
               PHOSPHORUS STRESS DAYS =     0.61
               AERATION STRESS DAYS =     0.00
1
    SWAT May 26   VER 2020/Rev 681                                                  

    General Input/Output section (file.cio):                                        
    12/22/2020 12:00:00 AM ARCGIS-SWAT interface AV                                 
                                                                                    
         AVE ANNUAL BASIN VALUES

              PRECIP =   2006.3 MM
              SNOW FALL =    0.08 MM
              SNOW MELT =     0.08 MM
              SUBLIMATION =     0.00 MM
              SURFACE RUNOFF Q =   762.67 MM
              LATERAL SOIL Q =  272.82 MM
              TILE Q =     0.00 MM
              GROUNDWATER (SHAL AQ) Q =   510.46 MM
              GROUNDWATER (DEEP AQ) Q =    28.00 MM
              REVAP (SHAL AQ => SOIL/PLANTS) =   26.76 MM
              DEEP AQ RECHARGE =    27.86 MM
              TOTAL AQ RECHARGE =  557.27 MM
              TOTAL WATER YLD =  1574.00 MM
              PERCOLATION OUT OF SOIL =  520.98 MM
              ET =    451.6 MM
              PET =   1346.2MM
              TRANSMISSION LOSSES =     0.00 MM
              SEPTIC INFLOW =       0.00 MM
              TOTAL SEDIMENT LOADING =     18.52 T/HA
              TILE FROM IMPOUNDED WATER =     0.000 (MM)
              EVAPORATION FROM IMPOUNDED WATER =     0.000 (MM)
              SEEPAGE INTO SOIL FROM IMPOUNDED WATER =    0.000 (MM)
              OVERFLOW FROM IMPOUNDED WATER =    0.000 (MM)
1
    SWAT May 26   VER 2020/Rev 681                                                  

    General Input/Output section (file.cio):                                        
    12/22/2020 12:00:00 AM ARCGIS-SWAT interface AV                                 
                                                                                    
              AVE ANNUAL BASIN VALUES


              NUTRIENTS
                   ORGANIC N =     6.857 (KG/HA)
                   ORGANIC P =     0.878 (KG/HA)
                   NO3 YIELD (SQ) =     0.177 (KG/HA)
                   NO3 YIELD (LAT) =    0.615 (KG/HA)
                   NO3 YIELD (TILE) =    0.000 (KG/HA)
                   SOLP YIELD (TILE) =    0.000(KG/HA)
                   SOLP YIELD (SURF INLET RISER) =    0.000 (KG/HA)
                   SOL P YIELD =    0.121 (KG/HA)
                   NO3 LEACHED =     8.410 (KG/HA)
                   P LEACHED =     0.233 (KG/HA)
                   N UPTAKE =    16.722 (KG/HA)
                   P UPTAKE =    3.845 (KG/HA)
                   NO3 YIELD (GWQ) =     0.117 (KG/HA)
                   ACTIVE TO SOLUTION P FLOW =         0.127 (KG/HA)
                   ACTIVE TO STABLE P FLOW =         0.400 (KG/HA)
                   N FERTILIZER APPLIED =     3.193 (KG/HA)
                   P FERTILIZER APPLIED =     0.000 (KG/HA)
                   N FIXATION =     0.000 (KG/HA)
                   DENITRIFICATION =     0.018 (KG/HA)
                   HUMUS MIN ON ACTIVE ORG N =    20.240 (KG/HA)
                   ACTIVE TO STABLE ORG N =    -9.518 (KG/HA)
                   HUMUS MIN ON ACTIVE ORG P =    3.466 (KG/HA)
                   MIN FROM FRESH ORG N =    4.850 (KG/HA)
                   MIN FROM FRESH ORG P =    1.270 (KG/HA)
                   NO3 IN RAINFALL =     0.000 (KG/HA)
                   INITIAL NO3 IN SOIL =      43.885 (KG/HA)
                   FINAL NO3 IN SOIL =         4.999 (KG/HA)
                   INITIAL ORG N IN SOIL =   20059.319 (KG/HA)
                   FINAL ORG N IN SOIL =     19837.796 (KG/HA)
                   INITIAL MIN P IN SOIL =    2316.242 (KG/HA)
                   FINAL MIN P IN SOIL =      2304.920 (KG/HA)
                   INITIAL ORG P IN SOIL =    2457.267 (KG/HA)
                   FINAL ORG P IN SOIL =    2424.337 (KG/HA)
                   NO3 IN FERT =     3.193 (KG/HA)
                   AMMONIA IN FERT =     0.000 (KG/HA)
                   ORG N IN FERT =     0.000 (KG/HA)
                   MINERAL P IN FERT =     0.000 (KG/HA)
                   ORG P IN FERT =     0.000 (KG/HA)
                   N REMOVED IN YIELD =    11.353 (KG/HA)
                   P REMOVED IN YIELD =     2.437 (KG/HA)
                   AMMONIA VOLATILIZATION =     0.000 (KG/HA)
                   AMMONIA NITRIFICATION =      0.000 (KG/HA)
                   NO3 EVAP-LAYER 2 TO 1 =    4.349

                   DIE-GRO P Q =           0.0 (No/M2)
                   DIE-GRO LP Q =           0.0 (No/M2)
                   DIE-GRO P SED =          0.0 (No/M2)
                   DIE-GRO LP SED =          0.0 (No/M2)
                   BACT P RUNOFF =          0.0 (No/M2)
                   BACT LP RUNOFF =          0.0 (No/M2)
                   BACT P SEDIMENT =          0.0 (No/M2)
                   BACT LP SEDIMENT =          0.0 (No/M2)
                   BACT P INCORP =          0.0 (No/M2)
                   BACT LP INCORP =          0.0 (No/M2)

                   NITRATE SEPTIC =         0.00 (kg/ha)
                   AMMONIA SEPTIC =         0.00 (kg/ha)
                   ORG N SEPTIC =         0.00 (kg/ha)
                   FRESH ORGN SEPTIC =         0.00 (kg/ha)
                   ORG P SEPTIC =         0.00 (kg/ha)
                   FRESH ORGP SEPTIC =         0.00 (kg/ha)
                   SOL P SEPTIC =         0.00 (kg/ha)
                   BOD SEPTIC =         0.00 (kg/ha)
