1
    SWAT May 26   VER 2020/Rev 681                                                                       0/ 0/   0      0: 0: 0

    General Input/Output section (file.cio):                                        
    12/22/2020 12:00:00 AM ARCGIS-SWAT interface AV                                 
                                                                                    


LULC  HRU       GIS  SUB  MGT  MON   AREAkm2  PRECIPmm
WATR    1 000010001    1    0    1.90008E-03     0.000
WATR    1 000010001    1    0    2.90008E-03     0.000
WATR    1 000010001    1    0    3.90008E-03     0.000
WATR    1 000010001    1    0    4.90008E-03     0.000
WATR    1 000010001    1    0    5.90008E-03     0.000
WATR    1 000010001    1    0    6.90008E-03     0.000
WATR    1 000010001    1    0    7.90008E-03     0.000
WATR    1 000010001    1    0    8.90008E-03     0.000
WATR    1 000010001    1    0    9.90008E-03     0.000
WATR    1 000010001    1    0   10.90008E-03     0.000
WATR    1 000010001    1    0   11.90008E-03     0.100
WATR    1 000010001    1    0   12.90008E-03     1.400
WATR    1 000010001    1    0   13.90008E-03     3.400
WATR    1 000010001    1    0   14.90008E-03     0.000
WATR    1 000010001    1    0   15.90008E-03     0.000
WATR    1 000010001    1    0   16.90008E-03     0.000
WATR    1 000010001    1    0   17.90008E-03     0.000
WATR    1 000010001    1    0   18.90008E-03     0.000
WATR    1 000010001    1    0   19.90008E-03     0.000
WATR    1 000010001    1    0   20.90008E-03     0.000
WATR    1 000010001    1    0   21.90008E-03     0.000
WATR    1 000010001    1    0   22.90008E-03     0.000
WATR    1 000010001    1    0   23.90008E-03     0.200
WATR    1 000010001    1    0   24.90008E-03     0.000
WATR    1 000010001    1    0   25.90008E-03     0.000
WATR    1 000010001    1    0   26.90008E-03     0.000
WATR    1 000010001    1    0   27.90008E-03     8.000
WATR    1 000010001    1    0   28.90008E-03     0.000
WATR    1 000010001    1    0   29.90008E-03     0.000
WATR    1 000010001    1    0   30.90008E-03     0.000
WATR    1 000010001    1    0   31.90008E-03     0.000
WATR    1 000010001    1    0   32.90008E-03     0.000
WATR    1 000010001    1    0   33.90008E-03     0.000
WATR    1 000010001    1    0   34.90008E-03     0.000
WATR    1 000010001    1    0   35.90008E-03     0.000
WATR    1 000010001    1    0   36.90008E-03     0.000
WATR    1 000010001    1    0   37.90008E-03     0.000
WATR    1 000010001    1    0   38.90008E-03     0.000
WATR    1 000010001    1    0   39.90008E-03     0.000
WATR    1 000010001    1    0   40.90008E-03     0.000
WATR    1 000010001    1    0   41.90008E-03     4.700
WATR    1 000010001    1    0   42.90008E-03     0.000
WATR    1 000010001    1    0   43.90008E-03     0.000
WATR    1 000010001    1    0   44.90008E-03     0.000
WATR    1 000010001    1    0   45.90008E-03     0.000
WATR    1 000010001    1    0   46.90008E-03     0.000
WATR    1 000010001    1    0   47.90008E-03     0.000
WATR    1 000010001    1    0   48.90008E-03     0.000
WATR    1 000010001    1    0   49.90008E-03     0.000
WATR    1 000010001    1    0   50.90008E-03     2.500
WATR    1 000010001    1    0   51.90008E-03     0.000
WATR    1 000010001    1    0   52.90008E-03     0.000
WATR    1 000010001    1    0   53.90008E-03     3.000
WATR    1 000010001    1    0   54.90008E-03     0.000
WATR    1 000010001    1    0   55.90008E-03     0.000
WATR    1 000010001    1    0   56.90008E-03     0.000
WATR    1 000010001    1    0   57.90008E-03     0.000
WATR    1 000010001    1    0   58.90008E-03     0.000
WATR    1 000010001    1    0   59.90008E-03     0.000
WATR    1 000010001    1    0   60.90008E-03     0.000
WATR    1 000010001    1    0   61.90008E-03     0.000
WATR    1 000010001    1    0   62.90008E-03     0.000
WATR    1 000010001    1    0   63.90008E-03     0.000
WATR    1 000010001    1    0   64.90008E-03     0.000
WATR    1 000010001    1    0   65.90008E-03     0.000
WATR    1 000010001    1    0   66.90008E-03     1.000
WATR    1 000010001    1    0   67.90008E-03     0.000
WATR    1 000010001    1    0   68.90008E-03     0.000
WATR    1 000010001    1    0   69.90008E-03     0.000
WATR    1 000010001    1    0   70.90008E-03     0.000
WATR    1 000010001    1    0   71.90008E-03     0.000
WATR    1 000010001    1    0   72.90008E-03     0.000
WATR    1 000010001    1    0   73.90008E-03     0.000
WATR    1 000010001    1    0   74.90008E-03     0.000
WATR    1 000010001    1    0   75.90008E-03     0.000
WATR    1 000010001    1    0   76.90008E-03     4.700
WATR    1 000010001    1    0   77.90008E-03     0.000
WATR    1 000010001    1    0   78.90008E-03     0.000
WATR    1 000010001    1    0   79.90008E-03     0.400
WATR    1 000010001    1    0   80.90008E-03    14.600
WATR    1 000010001    1    0   81.90008E-03     0.000
WATR    1 000010001    1    0   82.90008E-03     0.000
WATR    1 000010001    1    0   83.90008E-03     0.000
WATR    1 000010001    1    0   84.90008E-03     0.000
WATR    1 000010001    1    0   85.90008E-03     0.000
WATR    1 000010001    1    0   86.90008E-03     0.000
WATR    1 000010001    1    0   87.90008E-03     0.000
WATR    1 000010001    1    0   88.90008E-03     0.000
WATR    1 000010001    1    0   89.90008E-03     0.000
WATR    1 000010001    1    0   90.90008E-03     0.000
WATR    1 000010001    1    0   91.90008E-03     0.000
WATR    1 000010001    1    0   92.90008E-03     0.000
WATR    1 000010001    1    0   93.90008E-03     0.000
WATR    1 000010001    1    0   94.90008E-03     0.000
WATR    1 000010001    1    0   95.90008E-03     0.000
WATR    1 000010001    1    0   96.90008E-03     0.000
WATR    1 000010001    1    0   97.90008E-03     0.000
WATR    1 000010001    1    0   98.90008E-03     0.000
WATR    1 000010001    1    0   99.90008E-03     0.000
WATR    1 000010001    1    0  100.90008E-03     2.100
WATR    1 000010001    1    0  101.90008E-03     1.000
WATR    1 000010001    1    0  102.90008E-03     0.000
WATR    1 000010001    1    0  103.90008E-03     0.000
WATR    1 000010001    1    0  104.90008E-03     0.000
WATR    1 000010001    1    0  105.90008E-03     0.000
WATR    1 000010001    1    0  106.90008E-03     0.000
WATR    1 000010001    1    0  107.90008E-03     0.100
WATR    1 000010001    1    0  108.90008E-03     0.000
WATR    1 000010001    1    0  109.90008E-03     0.000
WATR    1 000010001    1    0  110.90008E-03     0.000
WATR    1 000010001    1    0  111.90008E-03     0.000
WATR    1 000010001    1    0  112.90008E-03     0.000
WATR    1 000010001    1    0  113.90008E-03     0.000
WATR    1 000010001    1    0  114.90008E-03     0.000
WATR    1 000010001    1    0  115.90008E-03     0.000
WATR    1 000010001    1    0  116.90008E-03     0.000
WATR    1 000010001    1    0  117.90008E-03     0.000
WATR    1 000010001    1    0  118.90008E-03     0.000
WATR    1 000010001    1    0  119.90008E-03     0.000
WATR    1 000010001    1    0  120.90008E-03     0.000
WATR    1 000010001    1    0  121.90008E-03     0.000
WATR    1 000010001    1    0  122.90008E-03    15.100
WATR    1 000010001    1    0  123.90008E-03     0.000
WATR    1 000010001    1    0  124.90008E-03     2.000
WATR    1 000010001    1    0  125.90008E-03     5.400
WATR    1 000010001    1    0  126.90008E-03     4.200
WATR    1 000010001    1    0  127.90008E-03    16.000
WATR    1 000010001    1    0  128.90008E-03     0.000
WATR    1 000010001    1    0  129.90008E-03     0.200
WATR    1 000010001    1    0  130.90008E-03     8.000
WATR    1 000010001    1    0  131.90008E-03     0.000
WATR    1 000010001    1    0  132.90008E-03     0.200
WATR    1 000010001    1    0  133.90008E-03     0.000
WATR    1 000010001    1    0  134.90008E-03     0.000
WATR    1 000010001    1    0  135.90008E-03    28.600
WATR    1 000010001    1    0  136.90008E-03     3.000
WATR    1 000010001    1    0  137.90008E-03     6.700
WATR    1 000010001    1    0  138.90008E-03   119.700
WATR    1 000010001    1    0  139.90008E-03    49.500
WATR    1 000010001    1    0  140.90008E-03     1.300
WATR    1 000010001    1    0  141.90008E-03     0.000
WATR    1 000010001    1    0  142.90008E-03     1.000
WATR    1 000010001    1    0  143.90008E-03    18.200
WATR    1 000010001    1    0  144.90008E-03    13.500
WATR    1 000010001    1    0  145.90008E-03     0.000
WATR    1 000010001    1    0  146.90008E-03     0.000
WATR    1 000010001    1    0  147.90008E-03     0.000
WATR    1 000010001    1    0  148.90008E-03     0.000
WATR    1 000010001    1    0  149.90008E-03     0.000
WATR    1 000010001    1    0  150.90008E-03     0.000
WATR    1 000010001    1    0  151.90008E-03     0.000
WATR    1 000010001    1    0  152.90008E-03     0.500
WATR    1 000010001    1    0  153.90008E-03     0.400
WATR    1 000010001    1    0  154.90008E-03    29.600
WATR    1 000010001    1    0  155.90008E-03     0.000
WATR    1 000010001    1    0  156.90008E-03     0.000
WATR    1 000010001    1    0  157.90008E-03     0.000
WATR    1 000010001    1    0  158.90008E-03     0.000
WATR    1 000010001    1    0  159.90008E-03     0.000
WATR    1 000010001    1    0  160.90008E-03     0.500
WATR    1 000010001    1    0  161.90008E-03     0.000
WATR    1 000010001    1    0  162.90008E-03     0.000
WATR    1 000010001    1    0  163.90008E-03     0.000
WATR    1 000010001    1    0  164.90008E-03     3.000
WATR    1 000010001    1    0  165.90008E-03     0.000
WATR    1 000010001    1    0  166.90008E-03     4.100
WATR    1 000010001    1    0  167.90008E-03     0.000
WATR    1 000010001    1    0  168.90008E-03     0.000
WATR    1 000010001    1    0  169.90008E-03     0.200
WATR    1 000010001    1    0  170.90008E-03    31.000
WATR    1 000010001    1    0  171.90008E-03     0.000
WATR    1 000010001    1    0  172.90008E-03     8.600
WATR    1 000010001    1    0  173.90008E-03    15.000
WATR    1 000010001    1    0  174.90008E-03     0.100
WATR    1 000010001    1    0  175.90008E-03     0.000
WATR    1 000010001    1    0  176.90008E-03     0.000
WATR    1 000010001    1    0  177.90008E-03     0.000
WATR    1 000010001    1    0  178.90008E-03     0.000
WATR    1 000010001    1    0  179.90008E-03     0.000
WATR    1 000010001    1    0  180.90008E-03     0.000
WATR    1 000010001    1    0  181.90008E-03     0.000
WATR    1 000010001    1    0  182.90008E-03    27.200
WATR    1 000010001    1    0  183.90008E-03     0.000
WATR    1 000010001    1    0  184.90008E-03     0.000
WATR    1 000010001    1    0  185.90008E-03     0.000
WATR    1 000010001    1    0  186.90008E-03     0.000
WATR    1 000010001    1    0  187.90008E-03     0.000
WATR    1 000010001    1    0  188.90008E-03     0.000
WATR    1 000010001    1    0  189.90008E-03     0.000
WATR    1 000010001    1    0  190.90008E-03     0.000
WATR    1 000010001    1    0  191.90008E-03     0.000
WATR    1 000010001    1    0  192.90008E-03     0.000
WATR    1 000010001    1    0  193.90008E-03     0.000
WATR    1 000010001    1    0  194.90008E-03     4.000
WATR    1 000010001    1    0  195.90008E-03     0.000
WATR    1 000010001    1    0  196.90008E-03    71.000
WATR    1 000010001    1    0  197.90008E-03     0.000
WATR    1 000010001    1    0  198.90008E-03     0.000
WATR    1 000010001    1    0  199.90008E-03     0.000
WATR    1 000010001    1    0  200.90008E-03     0.000
WATR    1 000010001    1    0  201.90008E-03     0.000
WATR    1 000010001    1    0  202.90008E-03     0.000
WATR    1 000010001    1    0  203.90008E-03     0.000
WATR    1 000010001    1    0  204.90008E-03     0.400
WATR    1 000010001    1    0  205.90008E-03     0.000
WATR    1 000010001    1    0  206.90008E-03     0.100
WATR    1 000010001    1    0  207.90008E-03    20.800
WATR    1 000010001    1    0  208.90008E-03    17.000
WATR    1 000010001    1    0  209.90008E-03     0.000
WATR    1 000010001    1    0  210.90008E-03     2.000
WATR    1 000010001    1    0  211.90008E-03     0.000
WATR    1 000010001    1    0  212.90008E-03     0.000
WATR    1 000010001    1    0  213.90008E-03     0.000
WATR    1 000010001    1    0  214.90008E-03     0.000
WATR    1 000010001    1    0  215.90008E-03     7.700
WATR    1 000010001    1    0  216.90008E-03    81.700
WATR    1 000010001    1    0  217.90008E-03    36.200
WATR    1 000010001    1    0  218.90008E-03     0.000
WATR    1 000010001    1    0  219.90008E-03     0.000
WATR    1 000010001    1    0  220.90008E-03     0.500
WATR    1 000010001    1    0  221.90008E-03     1.200
WATR    1 000010001    1    0  222.90008E-03     0.400
WATR    1 000010001    1    0  223.90008E-03     0.000
WATR    1 000010001    1    0  224.90008E-03     0.000
WATR    1 000010001    1    0  225.90008E-03     0.200
WATR    1 000010001    1    0  226.90008E-03     0.000
WATR    1 000010001    1    0  227.90008E-03     0.000
WATR    1 000010001    1    0  228.90008E-03     0.000
WATR    1 000010001    1    0  229.90008E-03     0.000
WATR    1 000010001    1    0  230.90008E-03     3.000
WATR    1 000010001    1    0  231.90008E-03     0.000
WATR    1 000010001    1    0  232.90008E-03     0.000
WATR    1 000010001    1    0  233.90008E-03    18.000
WATR    1 000010001    1    0  234.90008E-03     1.300
WATR    1 000010001    1    0  235.90008E-03     3.700
WATR    1 000010001    1    0  236.90008E-03    45.000
WATR    1 000010001    1    0  237.90008E-03     4.500
WATR    1 000010001    1    0  238.90008E-03     0.000
WATR    1 000010001    1    0  239.90008E-03    13.300
WATR    1 000010001    1    0  240.90008E-03     1.500
WATR    1 000010001    1    0  241.90008E-03     0.000
WATR    1 000010001    1    0  242.90008E-03     0.000
WATR    1 000010001    1    0  243.90008E-03     0.000
WATR    1 000010001    1    0  244.90008E-03     0.000
WATR    1 000010001    1    0  245.90008E-03     0.000
WATR    1 000010001    1    0  246.90008E-03     0.000
WATR    1 000010001    1    0  247.90008E-03     0.000
WATR    1 000010001    1    0  248.90008E-03     0.000
WATR    1 000010001    1    0  249.90008E-03     0.000
WATR    1 000010001    1    0  250.90008E-03     0.000
WATR    1 000010001    1    0  251.90008E-03     0.000
WATR    1 000010001    1    0  252.90008E-03     6.000
WATR    1 000010001    1    0  253.90008E-03     5.600
WATR    1 000010001    1    0  254.90008E-03     0.000
WATR    1 000010001    1    0  255.90008E-03     0.000
WATR    1 000010001    1    0  256.90008E-03     0.000
WATR    1 000010001    1    0  257.90008E-03     0.000
WATR    1 000010001    1    0  258.90008E-03     0.000
WATR    1 000010001    1    0  259.90008E-03     0.000
WATR    1 000010001    1    0  260.90008E-03     0.000
WATR    1 000010001    1    0  261.90008E-03     0.000
WATR    1 000010001    1    0  262.90008E-03     0.000
WATR    1 000010001    1    0  263.90008E-03     0.000
WATR    1 000010001    1    0  264.90008E-03     0.000
WATR    1 000010001    1    0  265.90008E-03     0.000
WATR    1 000010001    1    0  266.90008E-03     0.000
WATR    1 000010001    1    0  267.90008E-03     0.000
WATR    1 000010001    1    0  268.90008E-03     0.000
WATR    1 000010001    1    0  269.90008E-03    19.000
WATR    1 000010001    1    0  270.90008E-03     1.000
WATR    1 000010001    1    0  271.90008E-03     8.500
WATR    1 000010001    1    0  272.90008E-03     0.000
WATR    1 000010001    1    0  273.90008E-03     1.500
WATR    1 000010001    1    0  274.90008E-03    31.000
WATR    1 000010001    1    0  275.90008E-03    70.000
WATR    1 000010001    1    0  276.90008E-03   120.000
WATR    1 000010001    1    0  277.90008E-03   210.100
WATR    1 000010001    1    0  278.90008E-03    40.200
WATR    1 000010001    1    0  279.90008E-03     6.300
WATR    1 000010001    1    0  280.90008E-03     0.000
WATR    1 000010001    1    0  281.90008E-03     0.000
WATR    1 000010001    1    0  282.90008E-03     9.400
WATR    1 000010001    1    0  283.90008E-03     0.000
WATR    1 000010001    1    0  284.90008E-03    24.000
WATR    1 000010001    1    0  285.90008E-03    17.400
WATR    1 000010001    1    0  286.90008E-03     3.500
WATR    1 000010001    1    0  287.90008E-03     0.000
WATR    1 000010001    1    0  288.90008E-03     0.000
WATR    1 000010001    1    0  289.90008E-03     0.000
WATR    1 000010001    1    0  290.90008E-03     0.000
WATR    1 000010001    1    0  291.90008E-03     0.000
WATR    1 000010001    1    0  292.90008E-03     0.000
WATR    1 000010001    1    0  293.90008E-03     0.500
WATR    1 000010001    1    0  294.90008E-03     0.000
WATR    1 000010001    1    0  295.90008E-03   138.800
WATR    1 000010001    1    0  296.90008E-03     0.000
WATR    1 000010001    1    0  297.90008E-03    30.200
WATR    1 000010001    1    0  298.90008E-03     2.500
WATR    1 000010001    1    0  299.90008E-03     0.000
WATR    1 000010001    1    0  300.90008E-03     0.000
WATR    1 000010001    1    0  301.90008E-03     0.500
WATR    1 000010001    1    0  302.90008E-03    57.900
WATR    1 000010001    1    0  303.90008E-03    23.200
WATR    1 000010001    1    0  304.90008E-03     0.000
WATR    1 000010001    1    0  305.90008E-03     0.000
WATR    1 000010001    1    0  306.90008E-03     0.000
WATR    1 000010001    1    0  307.90008E-03     0.000
WATR    1 000010001    1    0  308.90008E-03     0.000
WATR    1 000010001    1    0  309.90008E-03     0.000
WATR    1 000010001    1    0  310.90008E-03     0.000
WATR    1 000010001    1    0  311.90008E-03     0.000
WATR    1 000010001    1    0  312.90008E-03     0.000
WATR    1 000010001    1    0  313.90008E-03     0.000
WATR    1 000010001    1    0  314.90008E-03     4.400
WATR    1 000010001    1    0  315.90008E-03     6.300
WATR    1 000010001    1    0  316.90008E-03    27.700
WATR    1 000010001    1    0  317.90008E-03     4.500
WATR    1 000010001    1    0  318.90008E-03     0.700
WATR    1 000010001    1    0  319.90008E-03    13.900
WATR    1 000010001    1    0  320.90008E-03     1.000
WATR    1 000010001    1    0  321.90008E-03     0.000
WATR    1 000010001    1    0  322.90008E-03     0.000
WATR    1 000010001    1    0  323.90008E-03     0.000
WATR    1 000010001    1    0  324.90008E-03     3.000
WATR    1 000010001    1    0  325.90008E-03     0.000
WATR    1 000010001    1    0  326.90008E-03     2.000
WATR    1 000010001    1    0  327.90008E-03     0.000
WATR    1 000010001    1    0  328.90008E-03     0.000
WATR    1 000010001    1    0  329.90008E-03     5.200
WATR    1 000010001    1    0  330.90008E-03    25.300
WATR    1 000010001    1    0  331.90008E-03    10.300
WATR    1 000010001    1    0  332.90008E-03     6.700
WATR    1 000010001    1    0  333.90008E-03     0.000
WATR    1 000010001    1    0  334.90008E-03     0.000
WATR    1 000010001    1    0  335.90008E-03     0.000
WATR    1 000010001    1    0  336.90008E-03    15.600
WATR    1 000010001    1    0  337.90008E-03   158.600
WATR    1 000010001    1    0  338.90008E-03    12.000
WATR    1 000010001    1    0  339.90008E-03     0.000
WATR    1 000010001    1    0  340.90008E-03     0.000
WATR    1 000010001    1    0  341.90008E-03     2.000
WATR    1 000010001    1    0  342.90008E-03     5.200
WATR    1 000010001    1    0  343.90008E-03    48.000
WATR    1 000010001    1    0  344.90008E-03     0.000
WATR    1 000010001    1    0  345.90008E-03     0.000
WATR    1 000010001    1    0  346.90008E-03     0.000
WATR    1 000010001    1    0  347.90008E-03     0.000
WATR    1 000010001    1    0  348.90008E-03     0.000
WATR    1 000010001    1    0  349.90008E-03     0.000
WATR    1 000010001    1    0  350.90008E-03     0.000
WATR    1 000010001    1    0  351.90008E-03     0.000
WATR    1 000010001    1    0  352.90008E-03     0.000
WATR    1 000010001    1    0  353.90008E-03     2.100
WATR    1 000010001    1    0  354.90008E-03    12.000
WATR    1 000010001    1    0  355.90008E-03     3.100
WATR    1 000010001    1    0  356.90008E-03     1.600
WATR    1 000010001    1    0  357.90008E-03     0.000
WATR    1 000010001    1    0  358.90008E-03     0.000
WATR    1 000010001    1    0  359.90008E-03     0.000
WATR    1 000010001    1    0  360.90008E-03     0.600
WATR    1 000010001    1    0  361.90008E-03    19.500
WATR    1 000010001    1    0  362.90008E-03     6.000
WATR    1 000010001    1    0  363.90008E-03     0.000
WATR    1 000010001    1    0  364.90008E-03     0.000
WATR    1 000010001    1    0  365.90008E-03     0.000
WATR    1 000010001    1    0    1.90008E-03     0.000
WATR    1 000010001    1    0    2.90008E-03     0.000
WATR    1 000010001    1    0    3.90008E-03     0.000
WATR    1 000010001    1    0    4.90008E-03     0.000
WATR    1 000010001    1    0    5.90008E-03     0.000
WATR    1 000010001    1    0    6.90008E-03     0.000
WATR    1 000010001    1    0    7.90008E-03     0.000
WATR    1 000010001    1    0    8.90008E-03     0.000
WATR    1 000010001    1    0    9.90008E-03     0.000
WATR    1 000010001    1    0   10.90008E-03     0.000
WATR    1 000010001    1    0   11.90008E-03     0.000
WATR    1 000010001    1    0   12.90008E-03     0.000
WATR    1 000010001    1    0   13.90008E-03     3.000
WATR    1 000010001    1    0   14.90008E-03     0.000
WATR    1 000010001    1    0   15.90008E-03     0.000
WATR    1 000010001    1    0   16.90008E-03     0.000
WATR    1 000010001    1    0   17.90008E-03     0.000
WATR    1 000010001    1    0   18.90008E-03     0.000
WATR    1 000010001    1    0   19.90008E-03     3.200
WATR    1 000010001    1    0   20.90008E-03     0.000
WATR    1 000010001    1    0   21.90008E-03     0.000
WATR    1 000010001    1    0   22.90008E-03     3.000
WATR    1 000010001    1    0   23.90008E-03     0.000
WATR    1 000010001    1    0   24.90008E-03     0.000
WATR    1 000010001    1    0   25.90008E-03     4.800
WATR    1 000010001    1    0   26.90008E-03     1.800
WATR    1 000010001    1    0   27.90008E-03     4.000
WATR    1 000010001    1    0   28.90008E-03     0.000
WATR    1 000010001    1    0   29.90008E-03     0.000
WATR    1 000010001    1    0   30.90008E-03     0.000
WATR    1 000010001    1    0   31.90008E-03     0.000
WATR    1 000010001    1    0   32.90008E-03     0.000
WATR    1 000010001    1    0   33.90008E-03     0.000
WATR    1 000010001    1    0   34.90008E-03     0.000
WATR    1 000010001    1    0   35.90008E-03     0.000
WATR    1 000010001    1    0   36.90008E-03     0.000
WATR    1 000010001    1    0   37.90008E-03     0.000
WATR    1 000010001    1    0   38.90008E-03     0.000
WATR    1 000010001    1    0   39.90008E-03     0.000
WATR    1 000010001    1    0   40.90008E-03     0.000
WATR    1 000010001    1    0   41.90008E-03     0.000
WATR    1 000010001    1    0   42.90008E-03     0.000
WATR    1 000010001    1    0   43.90008E-03     0.000
WATR    1 000010001    1    0   44.90008E-03     0.000
WATR    1 000010001    1    0   45.90008E-03     0.000
WATR    1 000010001    1    0   46.90008E-03     0.000
WATR    1 000010001    1    0   47.90008E-03     0.000
WATR    1 000010001    1    0   48.90008E-03     0.000
WATR    1 000010001    1    0   49.90008E-03     0.000
WATR    1 000010001    1    0   50.90008E-03     0.000
WATR    1 000010001    1    0   51.90008E-03     0.000
WATR    1 000010001    1    0   52.90008E-03     0.000
WATR    1 000010001    1    0   53.90008E-03     0.000
WATR    1 000010001    1    0   54.90008E-03     0.000
WATR    1 000010001    1    0   55.90008E-03     0.000
WATR    1 000010001    1    0   56.90008E-03     0.000
WATR    1 000010001    1    0   57.90008E-03     0.000
WATR    1 000010001    1    0   58.90008E-03     0.000
WATR    1 000010001    1    0   59.90008E-03     6.000
WATR    1 000010001    1    0   60.90008E-03     2.000
WATR    1 000010001    1    0   61.90008E-03    14.600
WATR    1 000010001    1    0   62.90008E-03     9.800
WATR    1 000010001    1    0   63.90008E-03     0.500
WATR    1 000010001    1    0   64.90008E-03     0.000
WATR    1 000010001    1    0   65.90008E-03     2.000
WATR    1 000010001    1    0   66.90008E-03     1.200
WATR    1 000010001    1    0   67.90008E-03    12.500
WATR    1 000010001    1    0   68.90008E-03     0.000
WATR    1 000010001    1    0   69.90008E-03     0.000
WATR    1 000010001    1    0   70.90008E-03     0.000
WATR    1 000010001    1    0   71.90008E-03     0.000
WATR    1 000010001    1    0   72.90008E-03     0.000
WATR    1 000010001    1    0   73.90008E-03     0.000
WATR    1 000010001    1    0   74.90008E-03     0.000
WATR    1 000010001    1    0   75.90008E-03     0.000
WATR    1 000010001    1    0   76.90008E-03     0.000
WATR    1 000010001    1    0   77.90008E-03     5.800
WATR    1 000010001    1    0   78.90008E-03     0.000
WATR    1 000010001    1    0   79.90008E-03     0.000
WATR    1 000010001    1    0   80.90008E-03     0.000
WATR    1 000010001    1    0   81.90008E-03     0.000
WATR    1 000010001    1    0   82.90008E-03     0.000
WATR    1 000010001    1    0   83.90008E-03     0.000
WATR    1 000010001    1    0   84.90008E-03     0.000
WATR    1 000010001    1    0   85.90008E-03     2.400
WATR    1 000010001    1    0   86.90008E-03     0.400
WATR    1 000010001    1    0   87.90008E-03     0.000
WATR    1 000010001    1    0   88.90008E-03     0.000
WATR    1 000010001    1    0   89.90008E-03     0.000
WATR    1 000010001    1    0   90.90008E-03     0.000
WATR    1 000010001    1    0   91.90008E-03     0.000
WATR    1 000010001    1    0   92.90008E-03     0.000
WATR    1 000010001    1    0   93.90008E-03     3.500
WATR    1 000010001    1    0   94.90008E-03     0.000
WATR    1 000010001    1    0   95.90008E-03     0.000
WATR    1 000010001    1    0   96.90008E-03     0.000
WATR    1 000010001    1    0   97.90008E-03     0.000
WATR    1 000010001    1    0   98.90008E-03     0.000
WATR    1 000010001    1    0   99.90008E-03    13.500
WATR    1 000010001    1    0  100.90008E-03    18.600
WATR    1 000010001    1    0  101.90008E-03     0.000
WATR    1 000010001    1    0  102.90008E-03     0.000
WATR    1 000010001    1    0  103.90008E-03     0.300
WATR    1 000010001    1    0  104.90008E-03     0.000
WATR    1 000010001    1    0  105.90008E-03     0.000
WATR    1 000010001    1    0  106.90008E-03     0.000
WATR    1 000010001    1    0  107.90008E-03     0.000
WATR    1 000010001    1    0  108.90008E-03     0.000
WATR    1 000010001    1    0  109.90008E-03     0.000
WATR    1 000010001    1    0  110.90008E-03     0.000
WATR    1 000010001    1    0  111.90008E-03     0.000
WATR    1 000010001    1    0  112.90008E-03     0.000
WATR    1 000010001    1    0  113.90008E-03     0.000
WATR    1 000010001    1    0  114.90008E-03    19.200
WATR    1 000010001    1    0  115.90008E-03     0.000
WATR    1 000010001    1    0  116.90008E-03     0.000
WATR    1 000010001    1    0  117.90008E-03     0.000
WATR    1 000010001    1    0  118.90008E-03     0.000
WATR    1 000010001    1    0  119.90008E-03     0.000
WATR    1 000010001    1    0  120.90008E-03     0.000
WATR    1 000010001    1    0  121.90008E-03     0.000
WATR    1 000010001    1    0  122.90008E-03     0.000
WATR    1 000010001    1    0  123.90008E-03     0.000
WATR    1 000010001    1    0  124.90008E-03     0.000
WATR    1 000010001    1    0  125.90008E-03     0.000
WATR    1 000010001    1    0  126.90008E-03     1.500
WATR    1 000010001    1    0  127.90008E-03     0.000
WATR    1 000010001    1    0  128.90008E-03    75.400
WATR    1 000010001    1    0  129.90008E-03     0.000
WATR    1 000010001    1    0  130.90008E-03     0.000
WATR    1 000010001    1    0  131.90008E-03     0.000
WATR    1 000010001    1    0  132.90008E-03     0.000
WATR    1 000010001    1    0  133.90008E-03     0.000
WATR    1 000010001    1    0  134.90008E-03     2.100
WATR    1 000010001    1    0  135.90008E-03     1.000
WATR    1 000010001    1    0  136.90008E-03     5.000
WATR    1 000010001    1    0  137.90008E-03    40.300
WATR    1 000010001    1    0  138.90008E-03     3.500
WATR    1 000010001    1    0  139.90008E-03     0.000
WATR    1 000010001    1    0  140.90008E-03     0.200
WATR    1 000010001    1    0  141.90008E-03     0.300
WATR    1 000010001    1    0  142.90008E-03     0.000
WATR    1 000010001    1    0  143.90008E-03     3.000
WATR    1 000010001    1    0  144.90008E-03     3.500
WATR    1 000010001    1    0  145.90008E-03     2.100
WATR    1 000010001    1    0  146.90008E-03     6.500
WATR    1 000010001    1    0  147.90008E-03     1.200
WATR    1 000010001    1    0  148.90008E-03     0.500
WATR    1 000010001    1    0  149.90008E-03     0.000
WATR    1 000010001    1    0  150.90008E-03    23.200
WATR    1 000010001    1    0  151.90008E-03    25.400
WATR    1 000010001    1    0  152.90008E-03     5.300
WATR    1 000010001    1    0  153.90008E-03    10.300
WATR    1 000010001    1    0  154.90008E-03     0.000
WATR    1 000010001    1    0  155.90008E-03     0.800
WATR    1 000010001    1    0  156.90008E-03    10.300
WATR    1 000010001    1    0  157.90008E-03    30.800
WATR    1 000010001    1    0  158.90008E-03    18.600
WATR    1 000010001    1    0  159.90008E-03    30.200
WATR    1 000010001    1    0  160.90008E-03    30.000
WATR    1 000010001    1    0  161.90008E-03     2.500
WATR    1 000010001    1    0  162.90008E-03     0.000
WATR    1 000010001    1    0  163.90008E-03     0.000
WATR    1 000010001    1    0  164.90008E-03     0.000
WATR    1 000010001    1    0  165.90008E-03     0.000
WATR    1 000010001    1    0  166.90008E-03     0.000
WATR    1 000010001    1    0  167.90008E-03    27.000
WATR    1 000010001    1    0  168.90008E-03     3.900
WATR    1 000010001    1    0  169.90008E-03    33.500
WATR    1 000010001    1    0  170.90008E-03     1.300
WATR    1 000010001    1    0  171.90008E-03     1.000
WATR    1 000010001    1    0  172.90008E-03     0.000
WATR    1 000010001    1    0  173.90008E-03     0.000
WATR    1 000010001    1    0  174.90008E-03     0.000
WATR    1 000010001    1    0  175.90008E-03     0.000
WATR    1 000010001    1    0  176.90008E-03     0.000
WATR    1 000010001    1    0  177.90008E-03     0.000
WATR    1 000010001    1    0  178.90008E-03    14.300
WATR    1 000010001    1    0  179.90008E-03     1.800
WATR    1 000010001    1    0  180.90008E-03     9.900
WATR    1 000010001    1    0  181.90008E-03     0.000
WATR    1 000010001    1    0  182.90008E-03     0.000
WATR    1 000010001    1    0  183.90008E-03     0.000
WATR    1 000010001    1    0  184.90008E-03     3.300
WATR    1 000010001    1    0  185.90008E-03     0.000
WATR    1 000010001    1    0  186.90008E-03     0.000
WATR    1 000010001    1    0  187.90008E-03     0.000
WATR    1 000010001    1    0  188.90008E-03     0.000
WATR    1 000010001    1    0  189.90008E-03     0.000
WATR    1 000010001    1    0  190.90008E-03     0.000
WATR    1 000010001    1    0  191.90008E-03     0.000
WATR    1 000010001    1    0  192.90008E-03     0.000
WATR    1 000010001    1    0  193.90008E-03     1.200
WATR    1 000010001    1    0  194.90008E-03     0.000
WATR    1 000010001    1    0  195.90008E-03     0.000
WATR    1 000010001    1    0  196.90008E-03     0.000
WATR    1 000010001    1    0  197.90008E-03     0.000
WATR    1 000010001    1    0  198.90008E-03    23.100
WATR    1 000010001    1    0  199.90008E-03     0.000
WATR    1 000010001    1    0  200.90008E-03     0.000
WATR    1 000010001    1    0  201.90008E-03     0.000
WATR    1 000010001    1    0  202.90008E-03     0.000
WATR    1 000010001    1    0  203.90008E-03     0.000
WATR    1 000010001    1    0  204.90008E-03     1.100
WATR    1 000010001    1    0  205.90008E-03    18.400
WATR    1 000010001    1    0  206.90008E-03     1.000
WATR    1 000010001    1    0  207.90008E-03    27.200
WATR    1 000010001    1    0  208.90008E-03     3.500
WATR    1 000010001    1    0  209.90008E-03     0.000
WATR    1 000010001    1    0  210.90008E-03     0.000
WATR    1 000010001    1    0  211.90008E-03     0.100
WATR    1 000010001    1    0  212.90008E-03     0.000
WATR    1 000010001    1    0  213.90008E-03     0.200
WATR    1 000010001    1    0  214.90008E-03     0.000
WATR    1 000010001    1    0  215.90008E-03     0.000
WATR    1 000010001    1    0  216.90008E-03     0.000
WATR    1 000010001    1    0  217.90008E-03     0.000
WATR    1 000010001    1    0  218.90008E-03     0.000
WATR    1 000010001    1    0  219.90008E-03     1.200
WATR    1 000010001    1    0  220.90008E-03     0.000
WATR    1 000010001    1    0  221.90008E-03     0.000
WATR    1 000010001    1    0  222.90008E-03     0.000
WATR    1 000010001    1    0  223.90008E-03     0.000
WATR    1 000010001    1    0  224.90008E-03     0.000
WATR    1 000010001    1    0  225.90008E-03     0.000
WATR    1 000010001    1    0  226.90008E-03     0.000
WATR    1 000010001    1    0  227.90008E-03    87.000
WATR    1 000010001    1    0  228.90008E-03    21.000
WATR    1 000010001    1    0  229.90008E-03     2.400
WATR    1 000010001    1    0  230.90008E-03     0.000
WATR    1 000010001    1    0  231.90008E-03     0.000
WATR    1 000010001    1    0  232.90008E-03     4.700
WATR    1 000010001    1    0  233.90008E-03     6.400
WATR    1 000010001    1    0  234.90008E-03     7.800
WATR    1 000010001    1    0  235.90008E-03     0.000
WATR    1 000010001    1    0  236.90008E-03     0.100
WATR    1 000010001    1    0  237.90008E-03     0.000
WATR    1 000010001    1    0  238.90008E-03     2.400
WATR    1 000010001    1    0  239.90008E-03     1.600
WATR    1 000010001    1    0  240.90008E-03     0.100
WATR    1 000010001    1    0  241.90008E-03     0.000
WATR    1 000010001    1    0  242.90008E-03     0.000
WATR    1 000010001    1    0  243.90008E-03     0.000
WATR    1 000010001    1    0  244.90008E-03    27.000
WATR    1 000010001    1    0  245.90008E-03    38.400
WATR    1 000010001    1    0  246.90008E-03     0.000
WATR    1 000010001    1    0  247.90008E-03     7.200
WATR    1 000010001    1    0  248.90008E-03    64.500
WATR    1 000010001    1    0  249.90008E-03    42.500
WATR    1 000010001    1    0  250.90008E-03    47.200
WATR    1 000010001    1    0  251.90008E-03     6.000
WATR    1 000010001    1    0  252.90008E-03     0.100
WATR    1 000010001    1    0  253.90008E-03     3.600
WATR    1 000010001    1    0  254.90008E-03     0.000
WATR    1 000010001    1    0  255.90008E-03     0.000
WATR    1 000010001    1    0  256.90008E-03     1.800
WATR    1 000010001    1    0  257.90008E-03     4.000
WATR    1 000010001    1    0  258.90008E-03     0.000
WATR    1 000010001    1    0  259.90008E-03    37.100
WATR    1 000010001    1    0  260.90008E-03    19.300
WATR    1 000010001    1    0  261.90008E-03    47.600
WATR    1 000010001    1    0  262.90008E-03     9.800
WATR    1 000010001    1    0  263.90008E-03    11.400
WATR    1 000010001    1    0  264.90008E-03     0.100
WATR    1 000010001    1    0  265.90008E-03    10.200
WATR    1 000010001    1    0  266.90008E-03     0.000
WATR    1 000010001    1    0  267.90008E-03    42.000
WATR    1 000010001    1    0  268.90008E-03     0.000
WATR    1 000010001    1    0  269.90008E-03     0.000
WATR    1 000010001    1    0  270.90008E-03     0.000
WATR    1 000010001    1    0  271.90008E-03     4.400
WATR    1 000010001    1    0  272.90008E-03     5.000
WATR    1 000010001    1    0  273.90008E-03    14.000
WATR    1 000010001    1    0  274.90008E-03     0.000
WATR    1 000010001    1    0  275.90008E-03     0.000
WATR    1 000010001    1    0  276.90008E-03     0.000
WATR    1 000010001    1    0  277.90008E-03     0.000
WATR    1 000010001    1    0  278.90008E-03     0.000
WATR    1 000010001    1    0  279.90008E-03     0.000
WATR    1 000010001    1    0  280.90008E-03     9.200
WATR    1 000010001    1    0  281.90008E-03     1.000
WATR    1 000010001    1    0  282.90008E-03     0.000
WATR    1 000010001    1    0  283.90008E-03     0.000
WATR    1 000010001    1    0  284.90008E-03     0.000
WATR    1 000010001    1    0  285.90008E-03     0.000
WATR    1 000010001    1    0  286.90008E-03     0.000
WATR    1 000010001    1    0  287.90008E-03     0.000
WATR    1 000010001    1    0  288.90008E-03     0.000
WATR    1 000010001    1    0  289.90008E-03     0.000
WATR    1 000010001    1    0  290.90008E-03     0.000
WATR    1 000010001    1    0  291.90008E-03     0.000
WATR    1 000010001    1    0  292.90008E-03     0.000
WATR    1 000010001    1    0  293.90008E-03     0.000
WATR    1 000010001    1    0  294.90008E-03     0.000
WATR    1 000010001    1    0  295.90008E-03     0.000
WATR    1 000010001    1    0  296.90008E-03     1.000
WATR    1 000010001    1    0  297.90008E-03     0.100
WATR    1 000010001    1    0  298.90008E-03     0.000
WATR    1 000010001    1    0  299.90008E-03     0.000
WATR    1 000010001    1    0  300.90008E-03     0.000
WATR    1 000010001    1    0  301.90008E-03     0.200
WATR    1 000010001    1    0  302.90008E-03     0.800
WATR    1 000010001    1    0  303.90008E-03     0.000
WATR    1 000010001    1    0  304.90008E-03    26.800
WATR    1 000010001    1    0  305.90008E-03    10.400
WATR    1 000010001    1    0  306.90008E-03    20.200
WATR    1 000010001    1    0  307.90008E-03     5.200
WATR    1 000010001    1    0  308.90008E-03    17.700
WATR    1 000010001    1    0  309.90008E-03    78.700
WATR    1 000010001    1    0  310.90008E-03     0.000
WATR    1 000010001    1    0  311.90008E-03    12.900
WATR    1 000010001    1    0  312.90008E-03   110.000
WATR    1 000010001    1    0  313.90008E-03    14.000
WATR    1 000010001    1    0  314.90008E-03     0.000
WATR    1 000010001    1    0  315.90008E-03     9.000
WATR    1 000010001    1    0  316.90008E-03    14.200
WATR    1 000010001    1    0  317.90008E-03     8.000
WATR    1 000010001    1    0  318.90008E-03     4.300
WATR    1 000010001    1    0  319.90008E-03     1.000
WATR    1 000010001    1    0  320.90008E-03     0.000
WATR    1 000010001    1    0  321.90008E-03     0.000
WATR    1 000010001    1    0  322.90008E-03     5.700
WATR    1 000010001    1    0  323.90008E-03    86.700
WATR    1 000010001    1    0  324.90008E-03     0.100
WATR    1 000010001    1    0  325.90008E-03     0.000
WATR    1 000010001    1    0  326.90008E-03     0.000
WATR    1 000010001    1    0  327.90008E-03     0.000
WATR    1 000010001    1    0  328.90008E-03     5.000
WATR    1 000010001    1    0  329.90008E-03    69.700
WATR    1 000010001    1    0  330.90008E-03    26.600
WATR    1 000010001    1    0  331.90008E-03     0.300
WATR    1 000010001    1    0  332.90008E-03     0.000
WATR    1 000010001    1    0  333.90008E-03     0.000
WATR    1 000010001    1    0  334.90008E-03     0.000
WATR    1 000010001    1    0  335.90008E-03     0.000
WATR    1 000010001    1    0  336.90008E-03     0.000
WATR    1 000010001    1    0  337.90008E-03     0.000
WATR    1 000010001    1    0  338.90008E-03     0.000
WATR    1 000010001    1    0  339.90008E-03     0.000
WATR    1 000010001    1    0  340.90008E-03     0.000
WATR    1 000010001    1    0  341.90008E-03     0.000
WATR    1 000010001    1    0  342.90008E-03     0.000
WATR    1 000010001    1    0  343.90008E-03     0.000
WATR    1 000010001    1    0  344.90008E-03     0.000
WATR    1 000010001    1    0  345.90008E-03     0.000
WATR    1 000010001    1    0  346.90008E-03     0.000
WATR    1 000010001    1    0  347.90008E-03     0.000
WATR    1 000010001    1    0  348.90008E-03     0.000
WATR    1 000010001    1    0  349.90008E-03     0.200
WATR    1 000010001    1    0  350.90008E-03     1.000
WATR    1 000010001    1    0  351.90008E-03     0.000
WATR    1 000010001    1    0  352.90008E-03     0.000
WATR    1 000010001    1    0  353.90008E-03     0.000
WATR    1 000010001    1    0  354.90008E-03     0.000
WATR    1 000010001    1    0  355.90008E-03     0.000
WATR    1 000010001    1    0  356.90008E-03     0.000
WATR    1 000010001    1    0  357.90008E-03     0.000
WATR    1 000010001    1    0  358.90008E-03     2.000
WATR    1 000010001    1    0  359.90008E-03     2.800
WATR    1 000010001    1    0  360.90008E-03     0.000
WATR    1 000010001    1    0  361.90008E-03    14.000
WATR    1 000010001    1    0  362.90008E-03     0.000
WATR    1 000010001    1    0  363.90008E-03     0.000
WATR    1 000010001    1    0  364.90008E-03     0.000
WATR    1 000010001    1    0  365.90008E-03     0.000
WATR    1 000010001    1    0    1.90008E-03     0.000
WATR    1 000010001    1    0    2.90008E-03     1.300
WATR    1 000010001    1    0    3.90008E-03    12.700
WATR    1 000010001    1    0    4.90008E-03     1.100
WATR    1 000010001    1    0    5.90008E-03     7.600
WATR    1 000010001    1    0    6.90008E-03     0.000
WATR    1 000010001    1    0    7.90008E-03     0.000
WATR    1 000010001    1    0    8.90008E-03     6.700
WATR    1 000010001    1    0    9.90008E-03    22.900
WATR    1 000010001    1    0   10.90008E-03    21.000
WATR    1 000010001    1    0   11.90008E-03     2.800
WATR    1 000010001    1    0   12.90008E-03     0.000
WATR    1 000010001    1    0   13.90008E-03     0.000
WATR    1 000010001    1    0   14.90008E-03     0.000
WATR    1 000010001    1    0   15.90008E-03     0.000
WATR    1 000010001    1    0   16.90008E-03     0.000
WATR    1 000010001    1    0   17.90008E-03     0.000
WATR    1 000010001    1    0   18.90008E-03     0.000
WATR    1 000010001    1    0   19.90008E-03     5.000
WATR    1 000010001    1    0   20.90008E-03     0.000
WATR    1 000010001    1    0   21.90008E-03     0.000
WATR    1 000010001    1    0   22.90008E-03     0.000
WATR    1 000010001    1    0   23.90008E-03     0.000
WATR    1 000010001    1    0   24.90008E-03     5.100
WATR    1 000010001    1    0   25.90008E-03     0.000
WATR    1 000010001    1    0   26.90008E-03     0.000
WATR    1 000010001    1    0   27.90008E-03     0.000
WATR    1 000010001    1    0   28.90008E-03     0.000
WATR    1 000010001    1    0   29.90008E-03     0.000
WATR    1 000010001    1    0   30.90008E-03     0.000
WATR    1 000010001    1    0   31.90008E-03     0.000
WATR    1 000010001    1    0   32.90008E-03     0.000
WATR    1 000010001    1    0   33.90008E-03     0.000
WATR    1 000010001    1    0   34.90008E-03     0.000
WATR    1 000010001    1    0   35.90008E-03     0.000
WATR    1 000010001    1    0   36.90008E-03     0.000
WATR    1 000010001    1    0   37.90008E-03     0.000
WATR    1 000010001    1    0   38.90008E-03     0.000
WATR    1 000010001    1    0   39.90008E-03     0.000
WATR    1 000010001    1    0   40.90008E-03     1.400
WATR    1 000010001    1    0   41.90008E-03     0.100
WATR    1 000010001    1    0   42.90008E-03     0.300
WATR    1 000010001    1    0   43.90008E-03     0.000
WATR    1 000010001    1    0   44.90008E-03     0.000
WATR    1 000010001    1    0   45.90008E-03     0.000
WATR    1 000010001    1    0   46.90008E-03     0.000
WATR    1 000010001    1    0   47.90008E-03     0.000
WATR    1 000010001    1    0   48.90008E-03    13.500
WATR    1 000010001    1    0   49.90008E-03     1.300
WATR    1 000010001    1    0   50.90008E-03     0.800
WATR    1 000010001    1    0   51.90008E-03     0.000
WATR    1 000010001    1    0   52.90008E-03     0.000
WATR    1 000010001    1    0   53.90008E-03     0.000
WATR    1 000010001    1    0   54.90008E-03     0.200
WATR    1 000010001    1    0   55.90008E-03     8.800
WATR    1 000010001    1    0   56.90008E-03     0.000
WATR    1 000010001    1    0   57.90008E-03     0.000
WATR    1 000010001    1    0   58.90008E-03     0.000
WATR    1 000010001    1    0   59.90008E-03     0.000
WATR    1 000010001    1    0   60.90008E-03     0.000
WATR    1 000010001    1    0   61.90008E-03     0.000
WATR    1 000010001    1    0   62.90008E-03     1.100
WATR    1 000010001    1    0   63.90008E-03     0.000
WATR    1 000010001    1    0   64.90008E-03     0.000
WATR    1 000010001    1    0   65.90008E-03     0.000
WATR    1 000010001    1    0   66.90008E-03     0.000
WATR    1 000010001    1    0   67.90008E-03     0.000
WATR    1 000010001    1    0   68.90008E-03     0.000
WATR    1 000010001    1    0   69.90008E-03     0.000
WATR    1 000010001    1    0   70.90008E-03     0.000
WATR    1 000010001    1    0   71.90008E-03     0.000
WATR    1 000010001    1    0   72.90008E-03     0.000
WATR    1 000010001    1    0   73.90008E-03     0.000
WATR    1 000010001    1    0   74.90008E-03     0.000
WATR    1 000010001    1    0   75.90008E-03     0.000
WATR    1 000010001    1    0   76.90008E-03     0.000
WATR    1 000010001    1    0   77.90008E-03     0.000
WATR    1 000010001    1    0   78.90008E-03     0.000
WATR    1 000010001    1    0   79.90008E-03     0.000
WATR    1 000010001    1    0   80.90008E-03     0.000
WATR    1 000010001    1    0   81.90008E-03     0.000
WATR    1 000010001    1    0   82.90008E-03     0.000
WATR    1 000010001    1    0   83.90008E-03     0.000
WATR    1 000010001    1    0   84.90008E-03     0.000
WATR    1 000010001    1    0   85.90008E-03     0.000
WATR    1 000010001    1    0   86.90008E-03     0.000
WATR    1 000010001    1    0   87.90008E-03     0.000
WATR    1 000010001    1    0   88.90008E-03     0.000
WATR    1 000010001    1    0   89.90008E-03     0.000
WATR    1 000010001    1    0   90.90008E-03     0.000
WATR    1 000010001    1    0   91.90008E-03     0.000
WATR    1 000010001    1    0   92.90008E-03     0.000
WATR    1 000010001    1    0   93.90008E-03     0.000
WATR    1 000010001    1    0   94.90008E-03     0.000
WATR    1 000010001    1    0   95.90008E-03     0.000
WATR    1 000010001    1    0   96.90008E-03     0.000
WATR    1 000010001    1    0   97.90008E-03     0.000
WATR    1 000010001    1    0   98.90008E-03     0.000
WATR    1 000010001    1    0   99.90008E-03     0.000
WATR    1 000010001    1    0  100.90008E-03     0.000
WATR    1 000010001    1    0  101.90008E-03     0.000
WATR    1 000010001    1    0  102.90008E-03     0.000
WATR    1 000010001    1    0  103.90008E-03     0.000
WATR    1 000010001    1    0  104.90008E-03     0.000
WATR    1 000010001    1    0  105.90008E-03     0.000
WATR    1 000010001    1    0  106.90008E-03     0.000
WATR    1 000010001    1    0  107.90008E-03     0.000
WATR    1 000010001    1    0  108.90008E-03     0.000
WATR    1 000010001    1    0  109.90008E-03     0.000
WATR    1 000010001    1    0  110.90008E-03     0.000
WATR    1 000010001    1    0  111.90008E-03     0.000
WATR    1 000010001    1    0  112.90008E-03     0.000
WATR    1 000010001    1    0  113.90008E-03     1.100
WATR    1 000010001    1    0  114.90008E-03     0.000
WATR    1 000010001    1    0  115.90008E-03     0.000
WATR    1 000010001    1    0  116.90008E-03     0.000
WATR    1 000010001    1    0  117.90008E-03     0.000
WATR    1 000010001    1    0  118.90008E-03     0.000
WATR    1 000010001    1    0  119.90008E-03     4.500
WATR    1 000010001    1    0  120.90008E-03    32.800
WATR    1 000010001    1    0  121.90008E-03     8.400
WATR    1 000010001    1    0  122.90008E-03    14.000
WATR    1 000010001    1    0  123.90008E-03     0.000
WATR    1 000010001    1    0  124.90008E-03     0.000
WATR    1 000010001    1    0  125.90008E-03    36.000
WATR    1 000010001    1    0  126.90008E-03     3.500
WATR    1 000010001    1    0  127.90008E-03     0.000
WATR    1 000010001    1    0  128.90008E-03     0.000
WATR    1 000010001    1    0  129.90008E-03     1.500
WATR    1 000010001    1    0  130.90008E-03     0.000
WATR    1 000010001    1    0  131.90008E-03    35.000
WATR    1 000010001    1    0  132.90008E-03     0.000
WATR    1 000010001    1    0  133.90008E-03     0.100
WATR    1 000010001    1    0  134.90008E-03     0.000
WATR    1 000010001    1    0  135.90008E-03     0.100
WATR    1 000010001    1    0  136.90008E-03     0.300
WATR    1 000010001    1    0  137.90008E-03     0.000
WATR    1 000010001    1    0  138.90008E-03     0.000
WATR    1 000010001    1    0  139.90008E-03     0.000
WATR    1 000010001    1    0  140.90008E-03     0.000
WATR    1 000010001    1    0  141.90008E-03     0.000
WATR    1 000010001    1    0  142.90008E-03     0.000
WATR    1 000010001    1    0  143.90008E-03     0.000
WATR    1 000010001    1    0  144.90008E-03     0.000
WATR    1 000010001    1    0  145.90008E-03    12.000
WATR    1 000010001    1    0  146.90008E-03    35.000
WATR    1 000010001    1    0  147.90008E-03     0.000
WATR    1 000010001    1    0  148.90008E-03     0.100
WATR    1 000010001    1    0  149.90008E-03     0.000
WATR    1 000010001    1    0  150.90008E-03     0.000
WATR    1 000010001    1    0  151.90008E-03     0.000
WATR    1 000010001    1    0  152.90008E-03     0.000
WATR    1 000010001    1    0  153.90008E-03     0.000
WATR    1 000010001    1    0  154.90008E-03     0.000
WATR    1 000010001    1    0  155.90008E-03    35.000
WATR    1 000010001    1    0  156.90008E-03     0.000
WATR    1 000010001    1    0  157.90008E-03     0.000
WATR    1 000010001    1    0  158.90008E-03     0.000
WATR    1 000010001    1    0  159.90008E-03     0.000
WATR    1 000010001    1    0  160.90008E-03     0.000
WATR    1 000010001    1    0  161.90008E-03     0.000
WATR    1 000010001    1    0  162.90008E-03     0.000
WATR    1 000010001    1    0  163.90008E-03     0.000
WATR    1 000010001    1    0  164.90008E-03    47.000
WATR    1 000010001    1    0  165.90008E-03     0.000
WATR    1 000010001    1    0  166.90008E-03     0.000
WATR    1 000010001    1    0  167.90008E-03     0.500
WATR    1 000010001    1    0  168.90008E-03    14.500
WATR    1 000010001    1    0  169.90008E-03    36.000
WATR    1 000010001    1    0  170.90008E-03    37.000
WATR    1 000010001    1    0  171.90008E-03     2.200
WATR    1 000010001    1    0  172.90008E-03     2.600
WATR    1 000010001    1    0  173.90008E-03     0.000
WATR    1 000010001    1    0  174.90008E-03    10.500
WATR    1 000010001    1    0  175.90008E-03     0.000
WATR    1 000010001    1    0  176.90008E-03     0.000
WATR    1 000010001    1    0  177.90008E-03     0.000
WATR    1 000010001    1    0  178.90008E-03     0.000
WATR    1 000010001    1    0  179.90008E-03     0.000
WATR    1 000010001    1    0  180.90008E-03    14.300
WATR    1 000010001    1    0  181.90008E-03     0.000
WATR    1 000010001    1    0  182.90008E-03     8.400
WATR    1 000010001    1    0  183.90008E-03     0.000
WATR    1 000010001    1    0  184.90008E-03     0.000
WATR    1 000010001    1    0  185.90008E-03     0.000
WATR    1 000010001    1    0  186.90008E-03     0.000
WATR    1 000010001    1    0  187.90008E-03    35.000
WATR    1 000010001    1    0  188.90008E-03     0.000
WATR    1 000010001    1    0  189.90008E-03    50.000
WATR    1 000010001    1    0  190.90008E-03     0.000
WATR    1 000010001    1    0  191.90008E-03     0.000
WATR    1 000010001    1    0  192.90008E-03    30.000
WATR    1 000010001    1    0  193.90008E-03     0.000
WATR    1 000010001    1    0  194.90008E-03    12.000
WATR    1 000010001    1    0  195.90008E-03     0.000
WATR    1 000010001    1    0  196.90008E-03     0.000
WATR    1 000010001    1    0  197.90008E-03    30.000
WATR    1 000010001    1    0  198.90008E-03     0.000
WATR    1 000010001    1    0  199.90008E-03     0.000
WATR    1 000010001    1    0  200.90008E-03     0.000
WATR    1 000010001    1    0  201.90008E-03     0.000
WATR    1 000010001    1    0  202.90008E-03     0.000
WATR    1 000010001    1    0  203.90008E-03     0.000
WATR    1 000010001    1    0  204.90008E-03     0.000
WATR    1 000010001    1    0  205.90008E-03     0.000
WATR    1 000010001    1    0  206.90008E-03    67.000
WATR    1 000010001    1    0  207.90008E-03     0.000
WATR    1 000010001    1    0  208.90008E-03     0.000
WATR    1 000010001    1    0  209.90008E-03     0.000
WATR    1 000010001    1    0  210.90008E-03     0.000
WATR    1 000010001    1    0  211.90008E-03     0.000
WATR    1 000010001    1    0  212.90008E-03     0.000
WATR    1 000010001    1    0  213.90008E-03     0.000
WATR    1 000010001    1    0  214.90008E-03     0.000
WATR    1 000010001    1    0  215.90008E-03     0.000
WATR    1 000010001    1    0  216.90008E-03     0.000
WATR    1 000010001    1    0  217.90008E-03    12.000
WATR    1 000010001    1    0  218.90008E-03     0.000
WATR    1 000010001    1    0  219.90008E-03     0.000
WATR    1 000010001    1    0  220.90008E-03     0.000
WATR    1 000010001    1    0  221.90008E-03     0.000
WATR    1 000010001    1    0  222.90008E-03     0.000
WATR    1 000010001    1    0  223.90008E-03     1.400
WATR    1 000010001    1    0  224.90008E-03     0.000
WATR    1 000010001    1    0  225.90008E-03     0.000
WATR    1 000010001    1    0  226.90008E-03     0.000
WATR    1 000010001    1    0  227.90008E-03     0.000
WATR    1 000010001    1    0  228.90008E-03     0.000
WATR    1 000010001    1    0  229.90008E-03     0.000
WATR    1 000010001    1    0  230.90008E-03    54.300
WATR    1 000010001    1    0  231.90008E-03     0.200
WATR    1 000010001    1    0  232.90008E-03     0.000
WATR    1 000010001    1    0  233.90008E-03     0.000
WATR    1 000010001    1    0  234.90008E-03     0.000
WATR    1 000010001    1    0  235.90008E-03     2.000
WATR    1 000010001    1    0  236.90008E-03     0.000
WATR    1 000010001    1    0  237.90008E-03     0.000
WATR    1 000010001    1    0  238.90008E-03     0.000
WATR    1 000010001    1    0  239.90008E-03     0.000
WATR    1 000010001    1    0  240.90008E-03     0.000
WATR    1 000010001    1    0  241.90008E-03     0.000
WATR    1 000010001    1    0  242.90008E-03     2.100
WATR    1 000010001    1    0  243.90008E-03     0.000
WATR    1 000010001    1    0  244.90008E-03     0.100
WATR    1 000010001    1    0  245.90008E-03     0.000
WATR    1 000010001    1    0  246.90008E-03     0.000
WATR    1 000010001    1    0  247.90008E-03     0.000
WATR    1 000010001    1    0  248.90008E-03     0.000
WATR    1 000010001    1    0  249.90008E-03     0.000
WATR    1 000010001    1    0  250.90008E-03     2.500
WATR    1 000010001    1    0  251.90008E-03     0.000
WATR    1 000010001    1    0  252.90008E-03     0.000
WATR    1 000010001    1    0  253.90008E-03     5.800
WATR    1 000010001    1    0  254.90008E-03     3.500
WATR    1 000010001    1    0  255.90008E-03    45.600
WATR    1 000010001    1    0  256.90008E-03     0.000
WATR    1 000010001    1    0  257.90008E-03     0.000
WATR    1 000010001    1    0  258.90008E-03     0.000
WATR    1 000010001    1    0  259.90008E-03     0.300
WATR    1 000010001    1    0  260.90008E-03    14.600
WATR    1 000010001    1    0  261.90008E-03     1.400
WATR    1 000010001    1    0  262.90008E-03    16.000
WATR    1 000010001    1    0  263.90008E-03    29.000
WATR    1 000010001    1    0  264.90008E-03     0.000
WATR    1 000010001    1    0  265.90008E-03    14.600
WATR    1 000010001    1    0  266.90008E-03     0.000
WATR    1 000010001    1    0  267.90008E-03     0.000
WATR    1 000010001    1    0  268.90008E-03     0.000
WATR    1 000010001    1    0  269.90008E-03     0.000
WATR    1 000010001    1    0  270.90008E-03     0.000
WATR    1 000010001    1    0  271.90008E-03     4.000
WATR    1 000010001    1    0  272.90008E-03     3.400
WATR    1 000010001    1    0  273.90008E-03    40.200
WATR    1 000010001    1    0  274.90008E-03     0.000
WATR    1 000010001    1    0  275.90008E-03    19.400
WATR    1 000010001    1    0  276.90008E-03     0.000
WATR    1 000010001    1    0  277.90008E-03     0.000
WATR    1 000010001    1    0  278.90008E-03    28.800
WATR    1 000010001    1    0  279.90008E-03    36.000
WATR    1 000010001    1    0  280.90008E-03     0.000
WATR    1 000010001    1    0  281.90008E-03     0.000
WATR    1 000010001    1    0  282.90008E-03    12.400
WATR    1 000010001    1    0  283.90008E-03    41.700
WATR    1 000010001    1    0  284.90008E-03   201.000
WATR    1 000010001    1    0  285.90008E-03    10.100
WATR    1 000010001    1    0  286.90008E-03    10.900
WATR    1 000010001    1    0  287.90008E-03    12.000
WATR    1 000010001    1    0  288.90008E-03    10.500
WATR    1 000010001    1    0  289.90008E-03    53.600
WATR    1 000010001    1    0  290.90008E-03    23.400
WATR    1 000010001    1    0  291.90008E-03     0.400
WATR    1 000010001    1    0  292.90008E-03    19.500
WATR    1 000010001    1    0  293.90008E-03    32.900
WATR    1 000010001    1    0  294.90008E-03     9.300
WATR    1 000010001    1    0  295.90008E-03     0.000
WATR    1 000010001    1    0  296.90008E-03     0.000
WATR    1 000010001    1    0  297.90008E-03     4.000
WATR    1 000010001    1    0  298.90008E-03     2.400
WATR    1 000010001    1    0  299.90008E-03     0.000
WATR    1 000010001    1    0  300.90008E-03     6.000
WATR    1 000010001    1    0  301.90008E-03     0.000
WATR    1 000010001    1    0  302.90008E-03    19.000
WATR    1 000010001    1    0  303.90008E-03     0.000
WATR    1 000010001    1    0  304.90008E-03     0.000
WATR    1 000010001    1    0  305.90008E-03     0.000
WATR    1 000010001    1    0  306.90008E-03     0.000
WATR    1 000010001    1    0  307.90008E-03    12.500
WATR    1 000010001    1    0  308.90008E-03     1.000
WATR    1 000010001    1    0  309.90008E-03    10.000
WATR    1 000010001    1    0  310.90008E-03     0.000
WATR    1 000010001    1    0  311.90008E-03     0.000
WATR    1 000010001    1    0  312.90008E-03    33.300
WATR    1 000010001    1    0  313.90008E-03     0.800
WATR    1 000010001    1    0  314.90008E-03     0.000
WATR    1 000010001    1    0  315.90008E-03     0.000
WATR    1 000010001    1    0  316.90008E-03     0.300
WATR    1 000010001    1    0  317.90008E-03     0.000
WATR    1 000010001    1    0  318.90008E-03     0.000
WATR    1 000010001    1    0  319.90008E-03     0.000
WATR    1 000010001    1    0  320.90008E-03     0.000
WATR    1 000010001    1    0  321.90008E-03     0.100
WATR    1 000010001    1    0  322.90008E-03     0.100
WATR    1 000010001    1    0  323.90008E-03     0.000
WATR    1 000010001    1    0  324.90008E-03     0.000
WATR    1 000010001    1    0  325.90008E-03     0.000
WATR    1 000010001    1    0  326.90008E-03     0.000
WATR    1 000010001    1    0  327.90008E-03     0.000
WATR    1 000010001    1    0  328.90008E-03     4.000
WATR    1 000010001    1    0  329.90008E-03     0.000
WATR    1 000010001    1    0  330.90008E-03     0.000
WATR    1 000010001    1    0  331.90008E-03     6.100
WATR    1 000010001    1    0  332.90008E-03    15.000
WATR    1 000010001    1    0  333.90008E-03     0.000
WATR    1 000010001    1    0  334.90008E-03     1.000
WATR    1 000010001    1    0  335.90008E-03     0.100
WATR    1 000010001    1    0  336.90008E-03     0.000
WATR    1 000010001    1    0  337.90008E-03     0.000
WATR    1 000010001    1    0  338.90008E-03     0.000
WATR    1 000010001    1    0  339.90008E-03     2.000
WATR    1 000010001    1    0  340.90008E-03     0.000
WATR    1 000010001    1    0  341.90008E-03     0.000
WATR    1 000010001    1    0  342.90008E-03     0.000
WATR    1 000010001    1    0  343.90008E-03     0.000
WATR    1 000010001    1    0  344.90008E-03     3.500
WATR    1 000010001    1    0  345.90008E-03     3.000
WATR    1 000010001    1    0  346.90008E-03     1.000
WATR    1 000010001    1    0  347.90008E-03     0.000
WATR    1 000010001    1    0  348.90008E-03     1.500
WATR    1 000010001    1    0  349.90008E-03     0.000
WATR    1 000010001    1    0  350.90008E-03     0.000
WATR    1 000010001    1    0  351.90008E-03     2.000
WATR    1 000010001    1    0  352.90008E-03     2.000
WATR    1 000010001    1    0  353.90008E-03     0.000
WATR    1 000010001    1    0  354.90008E-03     3.000
WATR    1 000010001    1    0  355.90008E-03     0.000
WATR    1 000010001    1    0  356.90008E-03     0.000
WATR    1 000010001    1    0  357.90008E-03     0.000
WATR    1 000010001    1    0  358.90008E-03     0.000
WATR    1 000010001    1    0  359.90008E-03     0.000
WATR    1 000010001    1    0  360.90008E-03     0.000
WATR    1 000010001    1    0  361.90008E-03     0.000
WATR    1 000010001    1    0  362.90008E-03     0.000
WATR    1 000010001    1    0  363.90008E-03     0.000
WATR    1 000010001    1    0  364.90008E-03    12.300
WATR    1 000010001    1    0  365.90008E-03     0.200
WATR    1 000010001    1    0  366.90008E-03     0.000
WATR    1 000010001    1    0    1.90008E-03     3.500
WATR    1 000010001    1    0    2.90008E-03     1.200
WATR    1 000010001    1    0    3.90008E-03     2.000
WATR    1 000010001    1    0    4.90008E-03    40.000
WATR    1 000010001    1    0    5.90008E-03    19.000
WATR    1 000010001    1    0    6.90008E-03     0.000
WATR    1 000010001    1    0    7.90008E-03     0.000
WATR    1 000010001    1    0    8.90008E-03     0.000
WATR    1 000010001    1    0    9.90008E-03     0.000
WATR    1 000010001    1    0   10.90008E-03     0.000
WATR    1 000010001    1    0   11.90008E-03     0.000
WATR    1 000010001    1    0   12.90008E-03     0.000
WATR    1 000010001    1    0   13.90008E-03     0.000
WATR    1 000010001    1    0   14.90008E-03     0.000
WATR    1 000010001    1    0   15.90008E-03     0.000
WATR    1 000010001    1    0   16.90008E-03     0.000
WATR    1 000010001    1    0   17.90008E-03     0.000
WATR    1 000010001    1    0   18.90008E-03     0.000
WATR    1 000010001    1    0   19.90008E-03     0.000
WATR    1 000010001    1    0   20.90008E-03     0.000
WATR    1 000010001    1    0   21.90008E-03     0.000
WATR    1 000010001    1    0   22.90008E-03     0.000
WATR    1 000010001    1    0   23.90008E-03     0.000
WATR    1 000010001    1    0   24.90008E-03     0.000
WATR    1 000010001    1    0   25.90008E-03     0.000
WATR    1 000010001    1    0   26.90008E-03     0.000
WATR    1 000010001    1    0   27.90008E-03     0.000
WATR    1 000010001    1    0   28.90008E-03     0.000
WATR    1 000010001    1    0   29.90008E-03     0.000
WATR    1 000010001    1    0   30.90008E-03     0.000
WATR    1 000010001    1    0   31.90008E-03     0.000
WATR    1 000010001    1    0   32.90008E-03     0.000
WATR    1 000010001    1    0   33.90008E-03     0.000
WATR    1 000010001    1    0   34.90008E-03     0.000
WATR    1 000010001    1    0   35.90008E-03     0.000
WATR    1 000010001    1    0   36.90008E-03     0.000
WATR    1 000010001    1    0   37.90008E-03     0.000
WATR    1 000010001    1    0   38.90008E-03     0.000
WATR    1 000010001    1    0   39.90008E-03     0.000
WATR    1 000010001    1    0   40.90008E-03     0.000
WATR    1 000010001    1    0   41.90008E-03     0.000
WATR    1 000010001    1    0   42.90008E-03     0.000
WATR    1 000010001    1    0   43.90008E-03     0.000
WATR    1 000010001    1    0   44.90008E-03     0.000
WATR    1 000010001    1    0   45.90008E-03     0.000
WATR    1 000010001    1    0   46.90008E-03     0.000
WATR    1 000010001    1    0   47.90008E-03     0.000
WATR    1 000010001    1    0   48.90008E-03     0.000
WATR    1 000010001    1    0   49.90008E-03     0.000
WATR    1 000010001    1    0   50.90008E-03     0.000
WATR    1 000010001    1    0   51.90008E-03     0.000
WATR    1 000010001    1    0   52.90008E-03     1.000
WATR    1 000010001    1    0   53.90008E-03     0.000
WATR    1 000010001    1    0   54.90008E-03     0.000
WATR    1 000010001    1    0   55.90008E-03     0.000
WATR    1 000010001    1    0   56.90008E-03     0.000
WATR    1 000010001    1    0   57.90008E-03     0.000
WATR    1 000010001    1    0   58.90008E-03     0.000
WATR    1 000010001    1    0   59.90008E-03     2.400
WATR    1 000010001    1    0   60.90008E-03     0.000
WATR    1 000010001    1    0   61.90008E-03     0.000
WATR    1 000010001    1    0   62.90008E-03     0.000
WATR    1 000010001    1    0   63.90008E-03     0.000
WATR    1 000010001    1    0   64.90008E-03     0.000
WATR    1 000010001    1    0   65.90008E-03     0.000
WATR    1 000010001    1    0   66.90008E-03     0.000
WATR    1 000010001    1    0   67.90008E-03     0.000
WATR    1 000010001    1    0   68.90008E-03     0.000
WATR    1 000010001    1    0   69.90008E-03     0.000
WATR    1 000010001    1    0   70.90008E-03     0.000
WATR    1 000010001    1    0   71.90008E-03     0.000
WATR    1 000010001    1    0   72.90008E-03     0.000
WATR    1 000010001    1    0   73.90008E-03     0.000
WATR    1 000010001    1    0   74.90008E-03     0.000
WATR    1 000010001    1    0   75.90008E-03    13.000
WATR    1 000010001    1    0   76.90008E-03     8.700
WATR    1 000010001    1    0   77.90008E-03     2.300
WATR    1 000010001    1    0   78.90008E-03    12.200
WATR    1 000010001    1    0   79.90008E-03     0.000
WATR    1 000010001    1    0   80.90008E-03    14.000
WATR    1 000010001    1    0   81.90008E-03     0.000
WATR    1 000010001    1    0   82.90008E-03     0.000
WATR    1 000010001    1    0   83.90008E-03    13.200
WATR    1 000010001    1    0   84.90008E-03     0.000
WATR    1 000010001    1    0   85.90008E-03     0.000
WATR    1 000010001    1    0   86.90008E-03     0.000
WATR    1 000010001    1    0   87.90008E-03     0.000
WATR    1 000010001    1    0   88.90008E-03     0.000
WATR    1 000010001    1    0   89.90008E-03     0.000
WATR    1 000010001    1    0   90.90008E-03     0.000
WATR    1 000010001    1    0   91.90008E-03     0.000
WATR    1 000010001    1    0   92.90008E-03     0.000
WATR    1 000010001    1    0   93.90008E-03    16.200
WATR    1 000010001    1    0   94.90008E-03     0.000
WATR    1 000010001    1    0   95.90008E-03     0.000
WATR    1 000010001    1    0   96.90008E-03     0.000
WATR    1 000010001    1    0   97.90008E-03     0.000
WATR    1 000010001    1    0   98.90008E-03     0.000
WATR    1 000010001    1    0   99.90008E-03     0.000
WATR    1 000010001    1    0  100.90008E-03     0.000
WATR    1 000010001    1    0  101.90008E-03     0.000
WATR    1 000010001    1    0  102.90008E-03     0.000
WATR    1 000010001    1    0  103.90008E-03     8.200
WATR    1 000010001    1    0  104.90008E-03     0.000
WATR    1 000010001    1    0  105.90008E-03    27.300
WATR    1 000010001    1    0  106.90008E-03     2.300
WATR    1 000010001    1    0  107.90008E-03     0.000
WATR    1 000010001    1    0  108.90008E-03     0.000
WATR    1 000010001    1    0  109.90008E-03     6.000
WATR    1 000010001    1    0  110.90008E-03     0.000
WATR    1 000010001    1    0  111.90008E-03     0.000
WATR    1 000010001    1    0  112.90008E-03     0.000
WATR    1 000010001    1    0  113.90008E-03     0.000
WATR    1 000010001    1    0  114.90008E-03     0.000
WATR    1 000010001    1    0  115.90008E-03     0.000
WATR    1 000010001    1    0  116.90008E-03     0.000
WATR    1 000010001    1    0  117.90008E-03     0.000
WATR    1 000010001    1    0  118.90008E-03     0.000
WATR    1 000010001    1    0  119.90008E-03     0.000
WATR    1 000010001    1    0  120.90008E-03     0.000
WATR    1 000010001    1    0  121.90008E-03     0.000
WATR    1 000010001    1    0  122.90008E-03     0.000
WATR    1 000010001    1    0  123.90008E-03     0.000
WATR    1 000010001    1    0  124.90008E-03     0.000
WATR    1 000010001    1    0  125.90008E-03     0.000
WATR    1 000010001    1    0  126.90008E-03     0.000
WATR    1 000010001    1    0  127.90008E-03    22.500
WATR    1 000010001    1    0  128.90008E-03     0.000
WATR    1 000010001    1    0  129.90008E-03     0.000
WATR    1 000010001    1    0  130.90008E-03     0.000
WATR    1 000010001    1    0  131.90008E-03     0.000
WATR    1 000010001    1    0  132.90008E-03     0.000
WATR    1 000010001    1    0  133.90008E-03     0.000
WATR    1 000010001    1    0  134.90008E-03    22.500
WATR    1 000010001    1    0  135.90008E-03     0.200
WATR    1 000010001    1    0  136.90008E-03     1.500
WATR    1 000010001    1    0  137.90008E-03     9.000
WATR    1 000010001    1    0  138.90008E-03     0.000
WATR    1 000010001    1    0  139.90008E-03     0.000
WATR    1 000010001    1    0  140.90008E-03     0.000
WATR    1 000010001    1    0  141.90008E-03     0.000
WATR    1 000010001    1    0  142.90008E-03     0.000
WATR    1 000010001    1    0  143.90008E-03     0.000
WATR    1 000010001    1    0  144.90008E-03   125.200
WATR    1 000010001    1    0  145.90008E-03    75.500
WATR    1 000010001    1    0  146.90008E-03    21.900
WATR    1 000010001    1    0  147.90008E-03     1.600
WATR    1 000010001    1    0  148.90008E-03     0.000
WATR    1 000010001    1    0  149.90008E-03     0.000
WATR    1 000010001    1    0  150.90008E-03    25.400
WATR    1 000010001    1    0  151.90008E-03     0.000
WATR    1 000010001    1    0  152.90008E-03     1.000
WATR    1 000010001    1    0  153.90008E-03     0.000
WATR    1 000010001    1    0  154.90008E-03    17.900
WATR    1 000010001    1    0  155.90008E-03    20.500
WATR    1 000010001    1    0  156.90008E-03    27.400
WATR    1 000010001    1    0  157.90008E-03     1.200
WATR    1 000010001    1    0  158.90008E-03     0.000
WATR    1 000010001    1    0  159.90008E-03     0.000
WATR    1 000010001    1    0  160.90008E-03    14.200
WATR    1 000010001    1    0  161.90008E-03    24.100
WATR    1 000010001    1    0  162.90008E-03     1.100
WATR    1 000010001    1    0  163.90008E-03     0.000
WATR    1 000010001    1    0  164.90008E-03     0.000
WATR    1 000010001    1    0  165.90008E-03     5.400
WATR    1 000010001    1    0  166.90008E-03     0.000
WATR    1 000010001    1    0  167.90008E-03     0.000
WATR    1 000010001    1    0  168.90008E-03     0.000
WATR    1 000010001    1    0  169.90008E-03     0.000
WATR    1 000010001    1    0  170.90008E-03     0.000
WATR    1 000010001    1    0  171.90008E-03     1.000
WATR    1 000010001    1    0  172.90008E-03    40.300
WATR    1 000010001    1    0  173.90008E-03    45.100
WATR    1 000010001    1    0  174.90008E-03     4.400
WATR    1 000010001    1    0  175.90008E-03     0.000
WATR    1 000010001    1    0  176.90008E-03     0.000
WATR    1 000010001    1    0  177.90008E-03    50.000
WATR    1 000010001    1    0  178.90008E-03     4.000
WATR    1 000010001    1    0  179.90008E-03     0.000
WATR    1 000010001    1    0  180.90008E-03     0.500
WATR    1 000010001    1    0  181.90008E-03    37.500
WATR    1 000010001    1    0  182.90008E-03     3.000
WATR    1 000010001    1    0  183.90008E-03     0.000
WATR    1 000010001    1    0  184.90008E-03     0.000
WATR    1 000010001    1    0  185.90008E-03    25.900
WATR    1 000010001    1    0  186.90008E-03    18.700
WATR    1 000010001    1    0  187.90008E-03     6.500
WATR    1 000010001    1    0  188.90008E-03     0.000
WATR    1 000010001    1    0  189.90008E-03    15.400
WATR    1 000010001    1    0  190.90008E-03     0.000
WATR    1 000010001    1    0  191.90008E-03     0.000
WATR    1 000010001    1    0  192.90008E-03     1.500
WATR    1 000010001    1    0  193.90008E-03     9.600
WATR    1 000010001    1    0  194.90008E-03     0.000
WATR    1 000010001    1    0  195.90008E-03     0.000
WATR    1 000010001    1    0  196.90008E-03     0.000
WATR    1 000010001    1    0  197.90008E-03     0.000
WATR    1 000010001    1    0  198.90008E-03     0.000
WATR    1 000010001    1    0  199.90008E-03     0.000
WATR    1 000010001    1    0  200.90008E-03    40.600
WATR    1 000010001    1    0  201.90008E-03     0.000
WATR    1 000010001    1    0  202.90008E-03    40.200
WATR    1 000010001    1    0  203.90008E-03    42.900
WATR    1 000010001    1    0  204.90008E-03     0.000
WATR    1 000010001    1    0  205.90008E-03     0.000
WATR    1 000010001    1    0  206.90008E-03     0.000
WATR    1 000010001    1    0  207.90008E-03     0.000
WATR    1 000010001    1    0  208.90008E-03     0.000
WATR    1 000010001    1    0  209.90008E-03     0.000
WATR    1 000010001    1    0  210.90008E-03     0.000
WATR    1 000010001    1    0  211.90008E-03     0.000
WATR    1 000010001    1    0  212.90008E-03     0.000
WATR    1 000010001    1    0  213.90008E-03     0.000
WATR    1 000010001    1    0  214.90008E-03     0.000
WATR    1 000010001    1    0  215.90008E-03     7.600
WATR    1 000010001    1    0  216.90008E-03     7.200
WATR    1 000010001    1    0  217.90008E-03    43.400
WATR    1 000010001    1    0  218.90008E-03     0.000
WATR    1 000010001    1    0  219.90008E-03     0.000
WATR    1 000010001    1    0  220.90008E-03     0.000
WATR    1 000010001    1    0  221.90008E-03     0.000
WATR    1 000010001    1    0  222.90008E-03     7.300
WATR    1 000010001    1    0  223.90008E-03     1.500
WATR    1 000010001    1    0  224.90008E-03     0.000
WATR    1 000010001    1    0  225.90008E-03     0.000
WATR    1 000010001    1    0  226.90008E-03    16.000
WATR    1 000010001    1    0  227.90008E-03     0.000
WATR    1 000010001    1    0  228.90008E-03     0.000
WATR    1 000010001    1    0  229.90008E-03     0.000
WATR    1 000010001    1    0  230.90008E-03     3.500
WATR    1 000010001    1    0  231.90008E-03     0.000
WATR    1 000010001    1    0  232.90008E-03    13.000
WATR    1 000010001    1    0  233.90008E-03     0.000
WATR    1 000010001    1    0  234.90008E-03     0.000
WATR    1 000010001    1    0  235.90008E-03    14.200
WATR    1 000010001    1    0  236.90008E-03     0.000
WATR    1 000010001    1    0  237.90008E-03     4.700
WATR    1 000010001    1    0  238.90008E-03    30.600
WATR    1 000010001    1    0  239.90008E-03     1.500
WATR    1 000010001    1    0  240.90008E-03     0.000
WATR    1 000010001    1    0  241.90008E-03     0.000
WATR    1 000010001    1    0  242.90008E-03     0.000
WATR    1 000010001    1    0  243.90008E-03    12.000
WATR    1 000010001    1    0  244.90008E-03     0.000
WATR    1 000010001    1    0  245.90008E-03     0.500
WATR    1 000010001    1    0  246.90008E-03     0.000
WATR    1 000010001    1    0  247.90008E-03     0.000
WATR    1 000010001    1    0  248.90008E-03     0.000
WATR    1 000010001    1    0  249.90008E-03     7.500
WATR    1 000010001    1    0  250.90008E-03     5.600
WATR    1 000010001    1    0  251.90008E-03     0.000
WATR    1 000010001    1    0  252.90008E-03     0.000
WATR    1 000010001    1    0  253.90008E-03     0.000
WATR    1 000010001    1    0  254.90008E-03     0.000
WATR    1 000010001    1    0  255.90008E-03     0.000
WATR    1 000010001    1    0  256.90008E-03     0.000
WATR    1 000010001    1    0  257.90008E-03    14.600
WATR    1 000010001    1    0  258.90008E-03     0.000
WATR    1 000010001    1    0  259.90008E-03     0.000
WATR    1 000010001    1    0  260.90008E-03    19.000
WATR    1 000010001    1    0  261.90008E-03    15.400
WATR    1 000010001    1    0  262.90008E-03    32.000
WATR    1 000010001    1    0  263.90008E-03    10.000
WATR    1 000010001    1    0  264.90008E-03     0.700
WATR    1 000010001    1    0  265.90008E-03     0.000
WATR    1 000010001    1    0  266.90008E-03     8.200
WATR    1 000010001    1    0  267.90008E-03    30.000
WATR    1 000010001    1    0  268.90008E-03     0.000
WATR    1 000010001    1    0  269.90008E-03     0.000
WATR    1 000010001    1    0  270.90008E-03     0.000
WATR    1 000010001    1    0  271.90008E-03     8.000
WATR    1 000010001    1    0  272.90008E-03     0.100
WATR    1 000010001    1    0  273.90008E-03     0.000
WATR    1 000010001    1    0  274.90008E-03     0.000
WATR    1 000010001    1    0  275.90008E-03     2.500
WATR    1 000010001    1    0  276.90008E-03     7.500
WATR    1 000010001    1    0  277.90008E-03    21.500
WATR    1 000010001    1    0  278.90008E-03     5.600
WATR    1 000010001    1    0  279.90008E-03     0.500
WATR    1 000010001    1    0  280.90008E-03     0.000
WATR    1 000010001    1    0  281.90008E-03     2.500
WATR    1 000010001    1    0  282.90008E-03     0.000
WATR    1 000010001    1    0  283.90008E-03     3.000
WATR    1 000010001    1    0  284.90008E-03     1.700
WATR    1 000010001    1    0  285.90008E-03     1.000
WATR    1 000010001    1    0  286.90008E-03    22.000
WATR    1 000010001    1    0  287.90008E-03     8.300
WATR    1 000010001    1    0  288.90008E-03     0.000
WATR    1 000010001    1    0  289.90008E-03     0.000
WATR    1 000010001    1    0  290.90008E-03     0.000
WATR    1 000010001    1    0  291.90008E-03    21.200
WATR    1 000010001    1    0  292.90008E-03     0.000
WATR    1 000010001    1    0  293.90008E-03     1.700
WATR    1 000010001    1    0  294.90008E-03     0.000
WATR    1 000010001    1    0  295.90008E-03     0.000
WATR    1 000010001    1    0  296.90008E-03     0.000
WATR    1 000010001    1    0  297.90008E-03     0.400
WATR    1 000010001    1    0  298.90008E-03     1.000
WATR    1 000010001    1    0  299.90008E-03     0.000
WATR    1 000010001    1    0  300.90008E-03     0.100
WATR    1 000010001    1    0  301.90008E-03     0.000
WATR    1 000010001    1    0  302.90008E-03     0.000
WATR    1 000010001    1    0  303.90008E-03     0.000
WATR    1 000010001    1    0  304.90008E-03     3.000
WATR    1 000010001    1    0  305.90008E-03     0.000
WATR    1 000010001    1    0  306.90008E-03     0.000
WATR    1 000010001    1    0  307.90008E-03     0.000
WATR    1 000010001    1    0  308.90008E-03     0.000
WATR    1 000010001    1    0  309.90008E-03     0.000
WATR    1 000010001    1    0  310.90008E-03     0.000
WATR    1 000010001    1    0  311.90008E-03     0.000
WATR    1 000010001    1    0  312.90008E-03     1.400
WATR    1 000010001    1    0  313.90008E-03     3.000
WATR    1 000010001    1    0  314.90008E-03    53.000
WATR    1 000010001    1    0  315.90008E-03    23.200
WATR    1 000010001    1    0  316.90008E-03     8.800
WATR    1 000010001    1    0  317.90008E-03     0.000
WATR    1 000010001    1    0  318.90008E-03     0.000
WATR    1 000010001    1    0  319.90008E-03    31.100
WATR    1 000010001    1    0  320.90008E-03     2.200
WATR    1 000010001    1    0  321.90008E-03     5.500
WATR    1 000010001    1    0  322.90008E-03     0.000
WATR    1 000010001    1    0  323.90008E-03     4.100
WATR    1 000010001    1    0  324.90008E-03     5.000
WATR    1 000010001    1    0  325.90008E-03     0.200
WATR    1 000010001    1    0  326.90008E-03     0.000
WATR    1 000010001    1    0  327.90008E-03     0.000
WATR    1 000010001    1    0  328.90008E-03     0.000
WATR    1 000010001    1    0  329.90008E-03     0.000
WATR    1 000010001    1    0  330.90008E-03     0.000
WATR    1 000010001    1    0  331.90008E-03     0.000
WATR    1 000010001    1    0  332.90008E-03    11.000
WATR    1 000010001    1    0  333.90008E-03     4.300
WATR    1 000010001    1    0  334.90008E-03     3.000
WATR    1 000010001    1    0  335.90008E-03     0.000
WATR    1 000010001    1    0  336.90008E-03     0.000
WATR    1 000010001    1    0  337.90008E-03     0.000
WATR    1 000010001    1    0  338.90008E-03     0.000
WATR    1 000010001    1    0  339.90008E-03     0.000
WATR    1 000010001    1    0  340.90008E-03     0.000
WATR    1 000010001    1    0  341.90008E-03     0.000
WATR    1 000010001    1    0  342.90008E-03     0.000
WATR    1 000010001    1    0  343.90008E-03     0.800
WATR    1 000010001    1    0  344.90008E-03     0.000
WATR    1 000010001    1    0  345.90008E-03     3.900
WATR    1 000010001    1    0  346.90008E-03     0.900
WATR    1 000010001    1    0  347.90008E-03    12.000
WATR    1 000010001    1    0  348.90008E-03     2.000
WATR    1 000010001    1    0  349.90008E-03     2.000
WATR    1 000010001    1    0  350.90008E-03     0.000
[...]
WATR    1 000010001    1    0   62.90008E-03     0.000
WATR    1 000010001    1    0   63.90008E-03     0.000
WATR    1 000010001    1    0   64.90008E-03     0.000
WATR    1 000010001    1    0   65.90008E-03     0.000
WATR    1 000010001    1    0   66.90008E-03     0.000
WATR    1 000010001    1    0   67.90008E-03     0.000
WATR    1 000010001    1    0   68.90008E-03     0.000
WATR    1 000010001    1    0   69.90008E-03     0.000
WATR    1 000010001    1    0   70.90008E-03     0.000
WATR    1 000010001    1    0   71.90008E-03     0.000
WATR    1 000010001    1    0   72.90008E-03     0.000
WATR    1 000010001    1    0   73.90008E-03     0.000
WATR    1 000010001    1    0   74.90008E-03     0.000
WATR    1 000010001    1    0   75.90008E-03     0.000
WATR    1 000010001    1    0   76.90008E-03     5.000
WATR    1 000010001    1    0   77.90008E-03     0.000
WATR    1 000010001    1    0   78.90008E-03     0.000
WATR    1 000010001    1    0   79.90008E-03     0.000
WATR    1 000010001    1    0   80.90008E-03     0.000
WATR    1 000010001    1    0   81.90008E-03     0.000
WATR    1 000010001    1    0   82.90008E-03     0.000
WATR    1 000010001    1    0   83.90008E-03     0.000
WATR    1 000010001    1    0   84.90008E-03     0.000
WATR    1 000010001    1    0   85.90008E-03     0.000
WATR    1 000010001    1    0   86.90008E-03     0.000
WATR    1 000010001    1    0   87.90008E-03     0.000
WATR    1 000010001    1    0   88.90008E-03     0.000
WATR    1 000010001    1    0   89.90008E-03     0.000
WATR    1 000010001    1    0   90.90008E-03     0.000
WATR    1 000010001    1    0   91.90008E-03     5.000
WATR    1 000010001    1    0   92.90008E-03     0.000
WATR    1 000010001    1    0   93.90008E-03     1.600
WATR    1 000010001    1    0   94.90008E-03     0.000
WATR    1 000010001    1    0   95.90008E-03     0.000
WATR    1 000010001    1    0   96.90008E-03     0.000
WATR    1 000010001    1    0   97.90008E-03     0.500
WATR    1 000010001    1    0   98.90008E-03     0.000
WATR    1 000010001    1    0   99.90008E-03     0.000
WATR    1 000010001    1    0  100.90008E-03     0.000
WATR    1 000010001    1    0  101.90008E-03     0.000
WATR    1 000010001    1    0  102.90008E-03     0.000
WATR    1 000010001    1    0  103.90008E-03     0.000
WATR    1 000010001    1    0  104.90008E-03     0.000
WATR    1 000010001    1    0  105.90008E-03     0.000
WATR    1 000010001    1    0  106.90008E-03     0.000
WATR    1 000010001    1    0  107.90008E-03     0.000
WATR    1 000010001    1    0  108.90008E-03     0.000
WATR    1 000010001    1    0  109.90008E-03     0.000
WATR    1 000010001    1    0  110.90008E-03     7.900
WATR    1 000010001    1    0  111.90008E-03     2.700
WATR    1 000010001    1    0  112.90008E-03     0.000
WATR    1 000010001    1    0  113.90008E-03     0.000
WATR    1 000010001    1    0  114.90008E-03    37.400
WATR    1 000010001    1    0  115.90008E-03     0.000
WATR    1 000010001    1    0  116.90008E-03     0.000
WATR    1 000010001    1    0  117.90008E-03     0.000
WATR    1 000010001    1    0  118.90008E-03     0.000
WATR    1 000010001    1    0  119.90008E-03     0.000
WATR    1 000010001    1    0  120.90008E-03     6.700
WATR    1 000010001    1    0  121.90008E-03     0.000
WATR    1 000010001    1    0  122.90008E-03     6.700
WATR    1 000010001    1    0  123.90008E-03     0.000
WATR    1 000010001    1    0  124.90008E-03     0.000
WATR    1 000010001    1    0  125.90008E-03     3.500
WATR    1 000010001    1    0  126.90008E-03     0.000
WATR    1 000010001    1    0  127.90008E-03    20.700
WATR    1 000010001    1    0  128.90008E-03    16.400
WATR    1 000010001    1    0  129.90008E-03     0.000
WATR    1 000010001    1    0  130.90008E-03     0.000
WATR    1 000010001    1    0  131.90008E-03     0.000
WATR    1 000010001    1    0  132.90008E-03     0.000
WATR    1 000010001    1    0  133.90008E-03     0.000
WATR    1 000010001    1    0  134.90008E-03     0.000
WATR    1 000010001    1    0  135.90008E-03     0.000
WATR    1 000010001    1    0  136.90008E-03    21.200
WATR    1 000010001    1    0  137.90008E-03    29.400
WATR    1 000010001    1    0  138.90008E-03     2.300
WATR    1 000010001    1    0  139.90008E-03     0.100
WATR    1 000010001    1    0  140.90008E-03    11.500
WATR    1 000010001    1    0  141.90008E-03    16.300
WATR    1 000010001    1    0  142.90008E-03     0.000
WATR    1 000010001    1    0  143.90008E-03     0.000
WATR    1 000010001    1    0  144.90008E-03     0.000
WATR    1 000010001    1    0  145.90008E-03     0.000
WATR    1 000010001    1    0  146.90008E-03     0.000
WATR    1 000010001    1    0  147.90008E-03     0.000
WATR    1 000010001    1    0  148.90008E-03     0.000
WATR    1 000010001    1    0  149.90008E-03     4.700
WATR    1 000010001    1    0  150.90008E-03     0.000
WATR    1 000010001    1    0  151.90008E-03     0.000
WATR    1 000010001    1    0  152.90008E-03     0.000
WATR    1 000010001    1    0  153.90008E-03     0.000
WATR    1 000010001    1    0  154.90008E-03     0.000
WATR    1 000010001    1    0  155.90008E-03     0.000
WATR    1 000010001    1    0  156.90008E-03     0.000
WATR    1 000010001    1    0  157.90008E-03     0.000
WATR    1 000010001    1    0  158.90008E-03     1.200
WATR    1 000010001    1    0  159.90008E-03     7.000
WATR    1 000010001    1    0  160.90008E-03     0.000
WATR    1 000010001    1    0  161.90008E-03     0.000
WATR    1 000010001    1    0  162.90008E-03     0.000
WATR    1 000010001    1    0  163.90008E-03     0.000
WATR    1 000010001    1    0  164.90008E-03     0.000
WATR    1 000010001    1    0  165.90008E-03     0.000
WATR    1 000010001    1    0  166.90008E-03     0.000
WATR    1 000010001    1    0  167.90008E-03     0.000
WATR    1 000010001    1    0  168.90008E-03     0.000
WATR    1 000010001    1    0  169.90008E-03     0.000
WATR    1 000010001    1    0  170.90008E-03     0.000
WATR    1 000010001    1    0  171.90008E-03     0.000
WATR    1 000010001    1    0  172.90008E-03     0.000
WATR    1 000010001    1    0  173.90008E-03     0.000
WATR    1 000010001    1    0  174.90008E-03     0.000
WATR    1 000010001    1    0  175.90008E-03     0.000
WATR    1 000010001    1    0  176.90008E-03     0.000
WATR    1 000010001    1    0  177.90008E-03     0.000
WATR    1 000010001    1    0  178.90008E-03     9.100
WATR    1 000010001    1    0  179.90008E-03     0.100
WATR    1 000010001    1    0  180.90008E-03     0.000
WATR    1 000010001    1    0  181.90008E-03     0.000
WATR    1 000010001    1    0  182.90008E-03     0.000
WATR    1 000010001    1    0  183.90008E-03     0.000
WATR    1 000010001    1    0  184.90008E-03     0.000
WATR    1 000010001    1    0  185.90008E-03     0.000
WATR    1 000010001    1    0  186.90008E-03     0.000
WATR    1 000010001    1    0  187.90008E-03     0.600
WATR    1 000010001    1    0  188.90008E-03     0.000
WATR    1 000010001    1    0  189.90008E-03     0.000
WATR    1 000010001    1    0  190.90008E-03     0.000
WATR    1 000010001    1    0  191.90008E-03     0.000
WATR    1 000010001    1    0  192.90008E-03     0.000
WATR    1 000010001    1    0  193.90008E-03     0.000
WATR    1 000010001    1    0  194.90008E-03     0.000
WATR    1 000010001    1    0  195.90008E-03     0.000
WATR    1 000010001    1    0  196.90008E-03     0.000
WATR    1 000010001    1    0  197.90008E-03     0.000
WATR    1 000010001    1    0  198.90008E-03     0.000
WATR    1 000010001    1    0  199.90008E-03     0.000
WATR    1 000010001    1    0  200.90008E-03     0.000
WATR    1 000010001    1    0  201.90008E-03     0.000
WATR    1 000010001    1    0  202.90008E-03     1.700
WATR    1 000010001    1    0  203.90008E-03    13.000
WATR    1 000010001    1    0  204.90008E-03     0.000
WATR    1 000010001    1    0  205.90008E-03    11.300
WATR    1 000010001    1    0  206.90008E-03     0.000
WATR    1 000010001    1    0  207.90008E-03     0.000
WATR    1 000010001    1    0  208.90008E-03     0.000
WATR    1 000010001    1    0  209.90008E-03     0.000
WATR    1 000010001    1    0  210.90008E-03     0.000
WATR    1 000010001    1    0  211.90008E-03     0.000
WATR    1 000010001    1    0  212.90008E-03     0.000
WATR    1 000010001    1    0  213.90008E-03     0.000
WATR    1 000010001    1    0  214.90008E-03     1.000
WATR    1 000010001    1    0  215.90008E-03     0.000
WATR    1 000010001    1    0  216.90008E-03     0.000
WATR    1 000010001    1    0  217.90008E-03    11.700
WATR    1 000010001    1    0  218.90008E-03    47.100
WATR    1 000010001    1    0  219.90008E-03     0.000
WATR    1 000010001    1    0  220.90008E-03     0.000
WATR    1 000010001    1    0  221.90008E-03     0.000
WATR    1 000010001    1    0  222.90008E-03     0.000
WATR    1 000010001    1    0  223.90008E-03     0.000
WATR    1 000010001    1    0  224.90008E-03     0.000
WATR    1 000010001    1    0  225.90008E-03     0.000
WATR    1 000010001    1    0  226.90008E-03     0.000
WATR    1 000010001    1    0  227.90008E-03     1.000
WATR    1 000010001    1    0  228.90008E-03     0.000
WATR    1 000010001    1    0  229.90008E-03     3.500
WATR    1 000010001    1    0  230.90008E-03     7.000
WATR    1 000010001    1    0  231.90008E-03     0.000
WATR    1 000010001    1    0  232.90008E-03     3.200
WATR    1 000010001    1    0  233.90008E-03     0.000
WATR    1 000010001    1    0  234.90008E-03     0.000
WATR    1 000010001    1    0  235.90008E-03    13.000
WATR    1 000010001    1    0  236.90008E-03     0.000
WATR    1 000010001    1    0  237.90008E-03     0.000
WATR    1 000010001    1    0  238.90008E-03     6.500
WATR    1 000010001    1    0  239.90008E-03     4.000
WATR    1 000010001    1    0  240.90008E-03    28.600
WATR    1 000010001    1    0  241.90008E-03     3.700
WATR    1 000010001    1    0  242.90008E-03    10.600
WATR    1 000010001    1    0  243.90008E-03     0.600
WATR    1 000010001    1    0  244.90008E-03     0.000
WATR    1 000010001    1    0  245.90008E-03    43.100
WATR    1 000010001    1    0  246.90008E-03     3.500
WATR    1 000010001    1    0  247.90008E-03     0.000
WATR    1 000010001    1    0  248.90008E-03     0.000
WATR    1 000010001    1    0  249.90008E-03     0.100
WATR    1 000010001    1    0  250.90008E-03     0.000
WATR    1 000010001    1    0  251.90008E-03     0.000
WATR    1 000010001    1    0  252.90008E-03     0.200
WATR    1 000010001    1    0  253.90008E-03     0.000
WATR    1 000010001    1    0  254.90008E-03     0.000
WATR    1 000010001    1    0  255.90008E-03     0.000
WATR    1 000010001    1    0  256.90008E-03    11.100
WATR    1 000010001    1    0  257.90008E-03     6.100
WATR    1 000010001    1    0  258.90008E-03     2.600
WATR    1 000010001    1    0  259.90008E-03     1.100
WATR    1 000010001    1    0  260.90008E-03     0.000
WATR    1 000010001    1    0  261.90008E-03     0.000
WATR    1 000010001    1    0  262.90008E-03     0.000
WATR    1 000010001    1    0  263.90008E-03     0.000
WATR    1 000010001    1    0  264.90008E-03     0.000
WATR    1 000010001    1    0  265.90008E-03     0.000
WATR    1 000010001    1    0  266.90008E-03     1.500
WATR    1 000010001    1    0  267.90008E-03    10.000
WATR    1 000010001    1    0  268.90008E-03     1.000
WATR    1 000010001    1    0  269.90008E-03    29.500
WATR    1 000010001    1    0  270.90008E-03    17.000
WATR    1 000010001    1    0  271.90008E-03     0.000
WATR    1 000010001    1    0  272.90008E-03     0.000
WATR    1 000010001    1    0  273.90008E-03     0.000
WATR    1 000010001    1    0  274.90008E-03    53.000
WATR    1 000010001    1    0  275.90008E-03     7.700
WATR    1 000010001    1    0  276.90008E-03     6.000
WATR    1 000010001    1    0  277.90008E-03    13.500
WATR    1 000010001    1    0  278.90008E-03    51.400
WATR    1 000010001    1    0  279.90008E-03     0.000
WATR    1 000010001    1    0  280.90008E-03    11.500
WATR    1 000010001    1    0  281.90008E-03    15.400
WATR    1 000010001    1    0  282.90008E-03    25.900
WATR    1 000010001    1    0  283.90008E-03     2.000
WATR    1 000010001    1    0  284.90008E-03     0.000
WATR    1 000010001    1    0  285.90008E-03     0.000
WATR    1 000010001    1    0  286.90008E-03     0.000
WATR    1 000010001    1    0  287.90008E-03     0.000
WATR    1 000010001    1    0  288.90008E-03     0.000
WATR    1 000010001    1    0  289.90008E-03     0.000
WATR    1 000010001    1    0  290.90008E-03     0.000
WATR    1 000010001    1    0  291.90008E-03     0.000
WATR    1 000010001    1    0  292.90008E-03     6.000
WATR    1 000010001    1    0  293.90008E-03    18.000
WATR    1 000010001    1    0  294.90008E-03    67.300
WATR    1 000010001    1    0  295.90008E-03    78.000
WATR    1 000010001    1    0  296.90008E-03   154.000
WATR    1 000010001    1    0  297.90008E-03     9.500
WATR    1 000010001    1    0  298.90008E-03     0.000
WATR    1 000010001    1    0  299.90008E-03     0.000
WATR    1 000010001    1    0  300.90008E-03     0.600
WATR    1 000010001    1    0  301.90008E-03     0.000
WATR    1 000010001    1    0  302.90008E-03     0.000
WATR    1 000010001    1    0  303.90008E-03     0.000
WATR    1 000010001    1    0  304.90008E-03     0.000
WATR    1 000010001    1    0  305.90008E-03     0.000
WATR    1 000010001    1    0  306.90008E-03     0.000
WATR    1 000010001    1    0  307.90008E-03     0.000
WATR    1 000010001    1    0  308.90008E-03     0.000
WATR    1 000010001    1    0  309.90008E-03     0.000
WATR    1 000010001    1    0  310.90008E-03     0.000
WATR    1 000010001    1    0  311.90008E-03     0.000
WATR    1 000010001    1    0  312.90008E-03     0.000
WATR    1 000010001    1    0  313.90008E-03     6.200
WATR    1 000010001    1    0  314.90008E-03     3.500
WATR    1 000010001    1    0  315.90008E-03     4.700
WATR    1 000010001    1    0  316.90008E-03     0.000
WATR    1 000010001    1    0  317.90008E-03     0.000
WATR    1 000010001    1    0  318.90008E-03     0.000
WATR    1 000010001    1    0  319.90008E-03     0.000
WATR    1 000010001    1    0  320.90008E-03     0.000
WATR    1 000010001    1    0  321.90008E-03     3.500
WATR    1 000010001    1    0  322.90008E-03     5.100
WATR    1 000010001    1    0  323.90008E-03     0.000
WATR    1 000010001    1    0  324.90008E-03     0.000
WATR    1 000010001    1    0  325.90008E-03     0.000
WATR    1 000010001    1    0  326.90008E-03     0.500
WATR    1 000010001    1    0  327.90008E-03     3.200
WATR    1 000010001    1    0  328.90008E-03     0.000
WATR    1 000010001    1    0  329.90008E-03     4.100
WATR    1 000010001    1    0  330.90008E-03    10.100
WATR    1 000010001    1    0  331.90008E-03     0.000
WATR    1 000010001    1    0  332.90008E-03     1.200
WATR    1 000010001    1    0  333.90008E-03     3.100
WATR    1 000010001    1    0  334.90008E-03     0.000
WATR    1 000010001    1    0  335.90008E-03     0.000
WATR    1 000010001    1    0  336.90008E-03     0.000
WATR    1 000010001    1    0  337.90008E-03     0.000
WATR    1 000010001    1    0  338.90008E-03     0.900
WATR    1 000010001    1    0  339.90008E-03     0.000
WATR    1 000010001    1    0  340.90008E-03     0.000
WATR    1 000010001    1    0  341.90008E-03     0.000
WATR    1 000010001    1    0  342.90008E-03     0.400
WATR    1 000010001    1    0  343.90008E-03     4.400
WATR    1 000010001    1    0  344.90008E-03     1.100
WATR    1 000010001    1    0  345.90008E-03     2.000
WATR    1 000010001    1    0  346.90008E-03     0.300
WATR    1 000010001    1    0  347.90008E-03     9.800
WATR    1 000010001    1    0  348.90008E-03     0.000
WATR    1 000010001    1    0  349.90008E-03     0.000
WATR    1 000010001    1    0  350.90008E-03     0.000
WATR    1 000010001    1    0  351.90008E-03     0.000
WATR    1 000010001    1    0  352.90008E-03     0.000
WATR    1 000010001    1    0  353.90008E-03     0.000
WATR    1 000010001    1    0  354.90008E-03     0.000
WATR    1 000010001    1    0  355.90008E-03     0.000
WATR    1 000010001    1    0  356.90008E-03     1.700
WATR    1 000010001    1    0  357.90008E-03     0.000
WATR    1 000010001    1    0  358.90008E-03     0.000
WATR    1 000010001    1    0  359.90008E-03     0.000
WATR    1 000010001    1    0  360.90008E-03     0.000
WATR    1 000010001    1    0  361.90008E-03     0.000
WATR    1 000010001    1    0  362.90008E-03     0.000
WATR    1 000010001    1    0  363.90008E-03     0.000
WATR    1 000010001    1    0  364.90008E-03     0.000
WATR    1 000010001    1    0  365.90008E-03     0.000
WATR    1 000010001    1    0    1.90008E-03     0.000
WATR    1 000010001    1    0    2.90008E-03     0.000
WATR    1 000010001    1    0    3.90008E-03     0.000
WATR    1 000010001    1    0    4.90008E-03     0.000
WATR    1 000010001    1    0    5.90008E-03     3.900
WATR    1 000010001    1    0    6.90008E-03     0.000
WATR    1 000010001    1    0    7.90008E-03     0.000
WATR    1 000010001    1    0    8.90008E-03     0.000
WATR    1 000010001    1    0    9.90008E-03     0.000
WATR    1 000010001    1    0   10.90008E-03     0.000
WATR    1 000010001    1    0   11.90008E-03     0.000
WATR    1 000010001    1    0   12.90008E-03     0.400
WATR    1 000010001    1    0   13.90008E-03     0.000
WATR    1 000010001    1    0   14.90008E-03     0.000
WATR    1 000010001    1    0   15.90008E-03     0.000
WATR    1 000010001    1    0   16.90008E-03     0.000
WATR    1 000010001    1    0   17.90008E-03     0.000
WATR    1 000010001    1    0   18.90008E-03     0.000
WATR    1 000010001    1    0   19.90008E-03     0.000
WATR    1 000010001    1    0   20.90008E-03     0.000
WATR    1 000010001    1    0   21.90008E-03     0.000
WATR    1 000010001    1    0   22.90008E-03     0.000
WATR    1 000010001    1    0   23.90008E-03     0.000
WATR    1 000010001    1    0   24.90008E-03     0.000
WATR    1 000010001    1    0   25.90008E-03     0.000
WATR    1 000010001    1    0   26.90008E-03     0.000
WATR    1 000010001    1    0   27.90008E-03     0.000
WATR    1 000010001    1    0   28.90008E-03     0.000
WATR    1 000010001    1    0   29.90008E-03     0.000
WATR    1 000010001    1    0   30.90008E-03     0.000
WATR    1 000010001    1    0   31.90008E-03     0.000
WATR    1 000010001    1    0   32.90008E-03     0.000
WATR    1 000010001    1    0   33.90008E-03     0.000
WATR    1 000010001    1    0   34.90008E-03     0.000
WATR    1 000010001    1    0   35.90008E-03     0.000
WATR    1 000010001    1    0   36.90008E-03     0.000
WATR    1 000010001    1    0   37.90008E-03     0.000
WATR    1 000010001    1    0   38.90008E-03     0.000
WATR    1 000010001    1    0   39.90008E-03     0.000
WATR    1 000010001    1    0   40.90008E-03     0.000
WATR    1 000010001    1    0   41.90008E-03     0.000
WATR    1 000010001    1    0   42.90008E-03     0.000
WATR    1 000010001    1    0   43.90008E-03     0.000
WATR    1 000010001    1    0   44.90008E-03     0.000
WATR    1 000010001    1    0   45.90008E-03     0.000
WATR    1 000010001    1    0   46.90008E-03     0.000
WATR    1 000010001    1    0   47.90008E-03     0.000
WATR    1 000010001    1    0   48.90008E-03     0.000
WATR    1 000010001    1    0   49.90008E-03     0.000
WATR    1 000010001    1    0   50.90008E-03     0.000
WATR    1 000010001    1    0   51.90008E-03     0.000
WATR    1 000010001    1    0   52.90008E-03     0.000
WATR    1 000010001    1    0   53.90008E-03     0.000
WATR    1 000010001    1    0   54.90008E-03     0.000
WATR    1 000010001    1    0   55.90008E-03     0.000
WATR    1 000010001    1    0   56.90008E-03     0.100
WATR    1 000010001    1    0   57.90008E-03     0.000
WATR    1 000010001    1    0   58.90008E-03     0.000
WATR    1 000010001    1    0   59.90008E-03     0.000
