1
    SWAT Sep 7    VER 2018/Rev 670                                                                       0/ 0/   0      0: 0: 0

    General Input/Output section (file.cio):                                        
    12/22/2020 12:00:00 AM ARCGIS-SWAT interface AV                                 
                                                                                    
         Number of years in run:    4
         Area of watershed:      248.229 km2
         Random number generator cycles: 0, use default numbers

         Initial random number seed: wet/dry day prob        748932582
         Initial random number seed: radiation              1948832765
         Initial random number seed: precipitation           857034417
         Initial random number seed: 0.5 hr rainfall          67377721
         Initial random number seed: wind speed              366304404
         Initial random number seed: irrigation             1094585182
         Initial random number seed: relative humidity      1767585417
         Initial random number seed: max temperature         608439319
         Initial random number seed: min temperature         592757081

         Precipitation data used in run:
          Multiple gages read for watershed
             Daily rainfall data used

         Temperature data used in run:
          Multiple gages read for watershed

         PET method used: Penman-Monteith

         Rainfall/Runoff/Routing Option:
          Daily rainfall data
          Runoff estimated with curve number method
          Daily stream routing
           Variable Storage routing method
           Channel dimensions remain constant
           Subbasin algae/CBOD loadings not modeled
           In-stream nutrient transformations modeled using QUAL2E equations

         Subbasin Input Summary:
          Sub Latitude  Elev(m) #HRUs Ponds Elevbnds Wetlnd
            1    12.21   891.96     6                   
            2    12.21   875.95     6                   
            3    12.21   828.37     6                   
            4    12.21   826.87     6                   
            5    12.21   802.85     6                   
            6    12.21   773.89     6                   
            7    12.19   810.35     6                   
            8    12.19   809.81     6                   
            9    12.19   754.31     5                   
           10    12.19   760.42     6                   
           11    12.19   739.03     3                   
           12    12.19   742.08     4                   
           13    12.17   767.83     6                   
           14    12.17   810.49     6                   
           15    12.17   707.47     3                   
           16    12.17   716.17     3                   
           17    12.17   734.51     6                   
           18    12.17   775.93     6                   
           19    12.17   777.23     6                   
           20    12.17   794.20     6                   
           21    12.17   683.75     5                   
           22    12.17   701.06     6                   
           23    12.17   741.58     6                   
           24    12.17   701.17     6                   
           25    12.16   634.86     4                   
           26    12.16   654.98     5                   
           27    12.16   647.15     4                   
           28    12.16   611.21     3                   
           29    12.16   677.19     3                   
           30    12.16   751.78     6                   
           31    12.16   606.81     3                   

         HRU Input Summary Table 1:
          Sub   HRU   Area(ha) Slope SlpLgth(m) Ovrlnd_N CondII_CN TimeConc(hr) ESCO EPCO
            1      1      53.24 0.033      91.46    0.100     70.00        0.615 0.95 1.00
            1      2     320.95 0.105      60.98    0.100     70.00        0.473 0.95 1.00
            1      3     879.75 0.319       9.15    0.100     70.00        0.434 0.95 1.00
            1      4     298.41 0.105      60.98    0.140     83.00        0.536 0.95 1.00
            1      5    1054.67 0.319       9.15    0.140     83.00        0.513 0.95 1.00
            1      6      44.97 0.033      91.46    0.140     83.00        0.741 0.95 1.00
            2      7     722.89 0.327       9.15    0.100     70.00        0.334 0.95 1.00
            2      8     183.29 0.107      60.98    0.100     70.00        0.400 0.95 1.00
            2      9      23.10 0.034      91.46    0.100     70.00        0.591 0.95 1.00
            2     10     390.53 0.336       9.15    0.140     83.00        0.241 0.95 1.00
            2     11      97.25 0.107      60.98    0.140     83.00        0.439 0.95 1.00
            2     12      15.12 0.034      91.46    0.140     83.00        0.717 0.95 1.00
            3     13      64.93 0.105      60.98    0.100     70.00        0.376 0.95 1.00
            3     14     260.67 0.322       9.15    0.100     70.00        0.252 0.95 1.00
            3     15       9.51 0.034      91.46    0.100     70.00        0.588 0.95 1.00
            3     16      68.73 0.104      60.98    0.140     83.00        0.452 0.95 1.00
            3     17     209.43 0.305       9.15    0.140     83.00        0.239 0.95 1.00
            3     18      11.88 0.033      91.46    0.140     83.00        0.726 0.95 1.00
            4     19      50.10 0.105      60.98    0.100     70.00        0.392 0.95 1.00
            4     20       7.61 0.032      91.46    0.100     70.00        0.602 0.95 1.00
            4     21     194.41 0.309       9.15    0.100     70.00        0.301 0.95 1.00
            4     22       9.13 0.034      91.46    0.140     83.00        0.724 0.95 1.00
            4     23     199.55 0.332       9.15    0.140     83.00        0.321 0.95 1.00
            4     24      58.18 0.104      60.98    0.140     83.00        0.476 0.95 1.00
            5     25       6.27 0.033      91.46    0.100     70.00        0.592 0.95 1.00
            5     26      44.68 0.108      60.98    0.100     70.00        0.367 0.95 1.00
            5     27     125.49 0.274       9.15    0.100     70.00        0.191 0.95 1.00
            5     28      75.10 0.107      60.98    0.140     83.00        0.466 0.95 1.00
            5     29     255.06 0.298       9.15    0.140     83.00        0.303 0.95 1.00
            5     30      10.55 0.032      91.46    0.140     83.00        0.734 0.95 1.00
            6     31       0.29 0.020      91.46    0.100     70.00        0.679 0.95 1.00
            6     32       5.89 0.112      60.98    0.100     70.00        0.324 0.95 1.00
            6     33      10.84 0.256       9.15    0.100     70.00        0.091 0.95 1.00
            6     34     197.17 0.106      60.98    0.140     83.00        0.546 0.95 1.00
            6     35     603.67 0.285       9.15    0.140     83.00        0.496 0.95 1.00
            6     36      30.71 0.034      91.46    0.140     83.00        0.738 0.95 1.00
            7     37      76.43 0.105      60.98    0.100     70.00        0.404 0.95 1.00
            7     38      13.02 0.033      91.46    0.100     70.00        0.601 0.95 1.00
            7     39     252.78 0.283       9.15    0.100     70.00        0.308 0.95 1.00
            7     40       9.51 0.035      91.46    0.140     83.00        0.715 0.95 1.00
            7     41     182.72 0.297       9.15    0.140     83.00        0.267 0.95 1.00
            7     42      55.23 0.107      60.98    0.140     83.00        0.455 0.95 1.00
            8     43      13.78 0.034      91.46    0.100     70.00        0.591 0.95 1.00
            8     44     101.15 0.105      60.98    0.100     70.00        0.396 0.95 1.00
            8     45     307.73 0.285       9.15    0.100     70.00        0.270 0.95 1.00
            8     46      73.58 0.106      60.98    0.140     83.00        0.450 0.95 1.00
            8     47     235.10 0.297       9.15    0.140     83.00        0.245 0.95 1.00
            8     48      12.45 0.033      91.46    0.140     83.00        0.726 0.95 1.00
            9     49       0.10 0.073      60.98    0.100     70.00        0.361 0.95 1.00
            9     50       0.19 0.297       9.15    0.100     70.00        0.076 0.95 1.00
            9     51     421.62 0.277       9.15    0.140     83.00        0.339 0.95 1.00
            9     52     160.85 0.105      60.98    0.140     83.00        0.501 0.95 1.00
            9     53      28.62 0.034      91.46    0.140     83.00        0.731 0.95 1.00
           10     54       2.95 0.102      60.98    0.100     70.00        0.330 0.95 1.00
           10     55       0.38 0.019     121.95    0.100     70.00        0.819 0.95 1.00
           10     56       6.37 0.261       9.15    0.100     70.00        0.086 0.95 1.00
           10     57      14.16 0.034      91.46    0.140     83.00        0.722 0.95 1.00
           10     58     101.72 0.106      60.98    0.140     83.00        0.474 0.95 1.00
           10     59     306.31 0.292       9.15    0.140     83.00        0.301 0.95 1.00
           11     60      50.20 0.105      60.98    0.140     83.00        0.469 0.95 1.00
           11     61     135.95 0.292       9.15    0.140     83.00        0.268 0.95 1.00
           11     62       8.46 0.033      91.46    0.140     83.00        0.730 0.95 1.00
           12     63       0.19 0.213      15.24    0.100     70.00        0.114 0.95 1.00
           12     64       8.94 0.034      91.46    0.140     83.00        0.722 0.95 1.00
           12     65      61.32 0.104      60.98    0.140     83.00        0.471 0.95 1.00
           12     66     198.59 0.304       9.15    0.140     83.00        0.300 0.95 1.00
           13     67      23.20 0.292       9.15    0.100     70.00        0.101 0.95 1.00
           13     68       6.56 0.105      60.98    0.100     70.00        0.332 0.95 1.00
           13     69       1.43 0.031      91.46    0.100     70.00        0.597 0.95 1.00
           13     70     420.67 0.284       9.15    0.140     83.00        0.403 0.95 1.00
           13     71      17.30 0.033      91.46    0.140     83.00        0.733 0.95 1.00
           13     72     125.87 0.106      60.98    0.140     83.00        0.502 0.95 1.00
           14     73      17.97 0.033      91.46    0.100     70.00        0.603 0.95 1.00
           14     74     420.86 0.293       9.15    0.100     70.00        0.386 0.95 1.00
           14     75     120.07 0.107      60.98    0.100     70.00        0.425 0.95 1.00
           14     76     399.09 0.283       9.15    0.140     83.00        0.390 0.95 1.00
           14     77     132.71 0.106      60.98    0.140     83.00        0.508 0.95 1.00
           14     78      19.77 0.034      91.46    0.140     83.00        0.729 0.95 1.00
           15     79     353.46 0.288       9.15    0.140     83.00        0.375 0.95 1.00
           15     80     127.10 0.105      60.98    0.140     83.00        0.511 0.95 1.00
           15     81      21.58 0.035      91.46    0.140     83.00        0.726 0.95 1.00
           16     82     344.24 0.104      60.98    0.140     83.00        0.593 0.95 1.00
           16     83     694.84 0.270       9.15    0.140     83.00        0.457 0.95 1.00
           16     84      61.32 0.033      91.46    0.140     83.00        0.758 0.95 1.00
           17     85       3.14 0.101      60.98    0.100     70.00        0.336 0.95 1.00
           17     86       0.38 0.036      91.46    0.100     70.00        0.570 0.95 1.00
           17     87      10.74 0.282       9.15    0.100     70.00        0.104 0.95 1.00
           17     88       6.75 0.035      91.46    0.140     83.00        0.720 0.95 1.00
           17     89     228.54 0.328       9.15    0.140     83.00        0.476 0.95 1.00
           17     90      57.33 0.106      60.98    0.140     83.00        0.510 0.95 1.00
           18     91     105.33 0.107      60.98    0.100     70.00        0.401 0.95 1.00
           18     92      14.07 0.032      91.46    0.100     70.00        0.603 0.95 1.00
           18     93     298.32 0.282       9.15    0.100     70.00        0.275 0.95 1.00
           18     94     203.92 0.281       9.15    0.140     83.00        0.236 0.95 1.00
           18     95      66.83 0.108      60.98    0.140     83.00        0.446 0.95 1.00
           18     96       9.41 0.035      91.46    0.140     83.00        0.712 0.95 1.00
           19     97       4.28 0.034      91.46    0.100     70.00        0.586 0.95 1.00
           19     98     126.34 0.301       9.15    0.100     70.00        0.226 0.95 1.00
           19     99      34.22 0.106      60.98    0.100     70.00        0.370 0.95 1.00
           19    100     165.99 0.106      60.98    0.140     83.00        0.585 0.95 1.00
           19    101      23.39 0.033      91.46    0.140     83.00        0.749 0.95 1.00
           19    102     477.52 0.284       9.15    0.140     83.00        0.575 0.95 1.00
           20    103     236.91 0.293       9.15    0.100     70.00        0.269 0.95 1.00
           20    104      14.26 0.033      91.46    0.100     70.00        0.600 0.95 1.00
           20    105      85.37 0.104      60.98    0.100     70.00        0.403 0.95 1.00
           20    106      76.43 0.032      91.46    0.140     83.00        0.793 0.95 1.00
           20    107     476.38 0.105      60.98    0.140     83.00        0.752 0.95 1.00
           20    108    1077.39 0.279       9.15    0.140     83.00        0.821 0.95 1.00
           21    109       0.29 0.306       9.15    0.100     70.00        0.076 0.95 1.00
           21    110       0.10 0.141      24.39    0.100     70.00        0.171 0.95 1.00
           21    111     100.01 0.106      60.98    0.140     83.00        0.503 0.95 1.00
           21    112     348.90 0.306       9.15    0.140     83.00        0.415 0.95 1.00
           21    113      13.02 0.033      91.46    0.140     83.00        0.733 0.95 1.00
           22    114      87.65 0.322       9.15    0.100     70.00        0.137 0.95 1.00
           22    115       2.85 0.033      91.46    0.100     70.00        0.587 0.95 1.00
           22    116      20.82 0.109      60.98    0.100     70.00        0.338 0.95 1.00
           22    117     153.53 0.105      60.98    0.140     83.00        0.498 0.95 1.00
           22    118     474.38 0.294       9.15    0.140     83.00        0.367 0.95 1.00
           22    119      23.48 0.033      91.46    0.140     83.00        0.734 0.95 1.00
           23    120      85.37 0.105      60.98    0.100     70.00        0.404 0.95 1.00
           23    121      11.98 0.035      91.46    0.100     70.00        0.588 0.95 1.00
           23    122     213.52 0.281       9.15    0.100     70.00        0.256 0.95 1.00
           23    123      37.46 0.033      91.46    0.140     83.00        0.753 0.95 1.00
           23    124     240.80 0.106      60.98    0.140     83.00        0.593 0.95 1.00
           23    125     566.03 0.261       9.15    0.140     83.00        0.516 0.95 1.00
           24    126       0.86 0.098      60.98    0.100     70.00        0.332 0.95 1.00
           24    127       3.14 0.251       9.15    0.100     70.00        0.085 0.95 1.00
           24    128       0.10 0.046      91.46    0.100     70.00        0.529 0.95 1.00
           24    129     113.32 0.104      60.98    0.140     83.00        0.522 0.95 1.00
           24    130      14.93 0.034      91.46    0.140     83.00        0.729 0.95 1.00
           24    131     243.28 0.257       9.15    0.140     83.00        0.341 0.95 1.00
           25    132       0.86 0.538       9.15    0.100     70.00        0.066 0.95 1.00
           25    133      15.88 0.105      60.98    0.140     83.00        0.426 0.95 1.00
           25    134      57.33 0.300       9.15    0.140     83.00        0.184 0.95 1.00
           25    135       2.57 0.034      91.46    0.140     83.00        0.714 0.95 1.00
           26    136       0.38 0.118      60.98    0.100     70.00        0.313 0.95 1.00
           26    137       0.38 0.398       9.15    0.100     70.00        0.070 0.95 1.00
           26    138     205.91 0.305       9.15    0.140     83.00        0.285 0.95 1.00
           26    139      55.14 0.105      60.98    0.140     83.00        0.457 0.95 1.00
           26    140       6.56 0.033      91.46    0.140     83.00        0.724 0.95 1.00
           27    141       0.10 0.095      60.98    0.100     70.00        0.333 0.95 1.00
           27    142      61.41 0.033      91.46    0.140     83.00        0.762 0.95 1.00
           27    143     630.01 0.263       9.15    0.140     83.00        0.465 0.95 1.00
           27    144     346.23 0.103      60.98    0.140     83.00        0.616 0.95 1.00
           28    145      14.36 0.103      60.98    0.140     83.00        0.451 0.95 1.00
           28    146      28.42 0.237      15.24    0.140     83.00        0.232 0.95 1.00
           28    147       3.23 0.035      91.46    0.140     83.00        0.716 0.95 1.00
           29    148      36.60 0.033      91.46    0.140     83.00        0.765 0.95 1.00
           29    149     544.73 0.262       9.15    0.140     83.00        0.634 0.95 1.00
           29    150     244.61 0.106      60.98    0.140     83.00        0.662 0.95 1.00
           30    151      27.66 0.357       9.15    0.100     70.00        0.100 0.95 1.00
           30    152       9.79 0.103      60.98    0.100     70.00        0.337 0.95 1.00
           30    153       1.24 0.037      91.46    0.100     70.00        0.566 0.95 1.00
           30    154     804.74 0.105      60.98    0.140     83.00        0.938 0.95 1.00
           30    155    2193.95 0.288       9.15    0.140     83.00        1.397 0.95 1.00
           30    156     124.06 0.033      91.46    0.140     83.00        0.820 0.95 1.00
           31    157      36.89 0.105      60.98    0.140     83.00        0.451 0.95 1.00
           31    158      63.60 0.260       9.15    0.140     83.00        0.185 0.95 1.00
           31    159       4.75 0.034      91.46    0.140     83.00        0.717 0.95 1.00

         HRU CN Input Summary Table:
          Sub   HRU   Area(ha)  LULC      Soil    CN1    CN2    CN3  Wilting Point (mm H2O)  Field Capacity (mm H2O)  Saturation (mm H2O)
            1      1      53.24  FRSE  Fr333ab4   51.2   70.0   85.7                   222.2                    160.0                324.9
            1      2     320.95  FRSE  Fr333ab4   51.2   70.0   85.7                   222.2                    160.0                324.9
            1      3     879.75  FRSE  Fr333ab4   51.2   70.0   85.7                   222.2                    160.0                324.9
            1      4     298.41  AGRL  Fr333ab4   67.0   83.0   93.1                   222.2                    160.0                324.9
            1      5    1054.67  AGRL  Fr333ab4   67.0   83.0   93.1                   222.2                    160.0                324.9
            1      6      44.97  AGRL  Fr333ab4   67.0   83.0   93.1                   222.2                    160.0                324.9
            2      7     722.89  FRSE  Fr333ab4   51.2   70.0   85.7                   222.2                    160.0                324.9
            2      8     183.29  FRSE  Fr333ab4   51.2   70.0   85.7                   222.2                    160.0                324.9
            2      9      23.10  FRSE  Fr333ab4   51.2   70.0   85.7                   222.2                    160.0                324.9
            2     10     390.53  AGRL  Fr333ab4   67.0   83.0   93.1                   222.2                    160.0                324.9
            2     11      97.25  AGRL  Fr333ab4   67.0   83.0   93.1                   222.2                    160.0                324.9
            2     12      15.12  AGRL  Fr333ab4   67.0   83.0   93.1                   222.2                    160.0                324.9
            3     13      64.93  FRSE  Fr333ab4   51.2   70.0   85.7                   222.2                    160.0                324.9
            3     14     260.67  FRSE  Fr333ab4   51.2   70.0   85.7                   222.2                    160.0                324.9
            3     15       9.51  FRSE  Fr333ab4   51.2   70.0   85.7                   222.2                    160.0                324.9
            3     16      68.73  AGRL  Fr333ab4   67.0   83.0   93.1                   222.2                    160.0                324.9
            3     17     209.43  AGRL  Fr333ab4   67.0   83.0   93.1                   222.2                    160.0                324.9
            3     18      11.88  AGRL  Fr333ab4   67.0   83.0   93.1                   222.2                    160.0                324.9
            4     19      50.10  FRSE  Fr333ab4   51.2   70.0   85.7                   222.2                    160.0                324.9
            4     20       7.61  FRSE  Fr333ab4   51.2   70.0   85.7                   222.2                    160.0                324.9
            4     21     194.41  FRSE  Fr333ab4   51.2   70.0   85.7                   222.2                    160.0                324.9
            4     22       9.13  AGRL  Fr333ab4   67.0   83.0   93.1                   222.2                    160.0                324.9
            4     23     199.55  AGRL  Fr333ab4   67.0   83.0   93.1                   222.2                    160.0                324.9
            4     24      58.18  AGRL  Fr333ab4   67.0   83.0   93.1                   222.2                    160.0                324.9
            5     25       6.27  FRSE  Fr333ab4   51.2   70.0   85.7                   222.2                    160.0                324.9
            5     26      44.68  FRSE  Fr333ab4   51.2   70.0   85.7                   222.2                    160.0                324.9
            5     27     125.49  FRSE  Fr333ab4   51.2   70.0   85.7                   222.2                    160.0                324.9
            5     28      75.10  AGRL  Fr333ab4   67.0   83.0   93.1                   222.2                    160.0                324.9
            5     29     255.06  AGRL  Fr333ab4   67.0   83.0   93.1                   222.2                    160.0                324.9
            5     30      10.55  AGRL  Fr333ab4   67.0   83.0   93.1                   222.2                    160.0                324.9
            6     31       0.29  FRSE  Fr333ab4   51.2   70.0   85.7                   222.2                    160.0                324.9
            6     32       5.89  FRSE  Fr333ab4   51.2   70.0   85.7                   222.2                    160.0                324.9
            6     33      10.84  FRSE  Fr333ab4   51.2   70.0   85.7                   222.2                    160.0                324.9
            6     34     197.17  AGRL  Fr333ab4   67.0   83.0   93.1                   222.2                    160.0                324.9
            6     35     603.67  AGRL  Fr333ab4   67.0   83.0   93.1                   222.2                    160.0                324.9
            6     36      30.71  AGRL  Fr333ab4   67.0   83.0   93.1                   222.2                    160.0                324.9
            7     37      76.43  FRSE  Fr333ab4   51.2   70.0   85.7                   222.2                    160.0                324.9
            7     38      13.02  FRSE  Fr333ab4   51.2   70.0   85.7                   222.2                    160.0                324.9
            7     39     252.78  FRSE  Fr333ab4   51.2   70.0   85.7                   222.2                    160.0                324.9
            7     40       9.51  AGRL  Fr333ab4   67.0   83.0   93.1                   222.2                    160.0                324.9
            7     41     182.72  AGRL  Fr333ab4   67.0   83.0   93.1                   222.2                    160.0                324.9
            7     42      55.23  AGRL  Fr333ab4   67.0   83.0   93.1                   222.2                    160.0                324.9
            8     43      13.78  FRSE  Fr333ab4   51.2   70.0   85.7                   222.2                    160.0                324.9
            8     44     101.15  FRSE  Fr333ab4   51.2   70.0   85.7                   222.2                    160.0                324.9
            8     45     307.73  FRSE  Fr333ab4   51.2   70.0   85.7                   222.2                    160.0                324.9
            8     46      73.58  AGRL  Fr333ab4   67.0   83.0   93.1                   222.2                    160.0                324.9
            8     47     235.10  AGRL  Fr333ab4   67.0   83.0   93.1                   222.2                    160.0                324.9
            8     48      12.45  AGRL  Fr333ab4   67.0   83.0   93.1                   222.2                    160.0                324.9
            9     49       0.10  FRSE  Fr333ab4   51.2   70.0   85.7                   222.2                    160.0                324.9
            9     50       0.19  FRSE  Fr333ab4   51.2   70.0   85.7                   222.2                    160.0                324.9
            9     51     421.62  AGRL  Fr333ab4   67.0   83.0   93.1                   222.2                    160.0                324.9
            9     52     160.85  AGRL  Fr333ab4   67.0   83.0   93.1                   222.2                    160.0                324.9
            9     53      28.62  AGRL  Fr333ab4   67.0   83.0   93.1                   222.2                    160.0                324.9
           10     54       2.95  FRSE  Fr333ab4   51.2   70.0   85.7                   222.2                    160.0                324.9
           10     55       0.38  FRSE  Fr333ab4   51.2   70.0   85.7                   222.2                    160.0                324.9
           10     56       6.37  FRSE  Fr333ab4   51.2   70.0   85.7                   222.2                    160.0                324.9
           10     57      14.16  AGRL  Fr333ab4   67.0   83.0   93.1                   222.2                    160.0                324.9
           10     58     101.72  AGRL  Fr333ab4   67.0   83.0   93.1                   222.2                    160.0                324.9
           10     59     306.31  AGRL  Fr333ab4   67.0   83.0   93.1                   222.2                    160.0                324.9
           11     60      50.20  AGRL  Fr333ab4   67.0   83.0   93.1                   222.2                    160.0                324.9
           11     61     135.95  AGRL  Fr333ab4   67.0   83.0   93.1                   222.2                    160.0                324.9
           11     62       8.46  AGRL  Fr333ab4   67.0   83.0   93.1                   222.2                    160.0                324.9
           12     63       0.19  FRSE  Fr333ab4   51.2   70.0   85.7                   222.2                    160.0                324.9
           12     64       8.94  AGRL  Fr333ab4   67.0   83.0   93.1                   222.2                    160.0                324.9
           12     65      61.32  AGRL  Fr333ab4   67.0   83.0   93.1                   222.2                    160.0                324.9
           12     66     198.59  AGRL  Fr333ab4   67.0   83.0   93.1                   222.2                    160.0                324.9
           13     67      23.20  FRSE  Fr333ab4   51.2   70.0   85.7                   222.2                    160.0                324.9
           13     68       6.56  FRSE  Fr333ab4   51.2   70.0   85.7                   222.2                    160.0                324.9
           13     69       1.43  FRSE  Fr333ab4   51.2   70.0   85.7                   222.2                    160.0                324.9
           13     70     420.67  AGRL  Fr333ab4   67.0   83.0   93.1                   222.2                    160.0                324.9
           13     71      17.30  AGRL  Fr333ab4   67.0   83.0   93.1                   222.2                    160.0                324.9
           13     72     125.87  AGRL  Fr333ab4   67.0   83.0   93.1                   222.2                    160.0                324.9
           14     73      17.97  FRSE  Fr333ab4   51.2   70.0   85.7                   222.2                    160.0                324.9
           14     74     420.86  FRSE  Fr333ab4   51.2   70.0   85.7                   222.2                    160.0                324.9
           14     75     120.07  FRSE  Fr333ab4   51.2   70.0   85.7                   222.2                    160.0                324.9
           14     76     399.09  AGRL  Fr333ab4   67.0   83.0   93.1                   222.2                    160.0                324.9
           14     77     132.71  AGRL  Fr333ab4   67.0   83.0   93.1                   222.2                    160.0                324.9
           14     78      19.77  AGRL  Fr333ab4   67.0   83.0   93.1                   222.2                    160.0                324.9
           15     79     353.46  AGRL  Fr333ab4   67.0   83.0   93.1                   222.2                    160.0                324.9
           15     80     127.10  AGRL  Fr333ab4   67.0   83.0   93.1                   222.2                    160.0                324.9
           15     81      21.58  AGRL  Fr333ab4   67.0   83.0   93.1                   222.2                    160.0                324.9
           16     82     344.24  AGRL  Fr333ab4   67.0   83.0   93.1                   222.2                    160.0                324.9
           16     83     694.84  AGRL  Fr333ab4   67.0   83.0   93.1                   222.2                    160.0                324.9
           16     84      61.32  AGRL  Fr333ab4   67.0   83.0   93.1                   222.2                    160.0                324.9
           17     85       3.14  FRSE  Fr333ab4   51.2   70.0   85.7                   222.2                    160.0                324.9
           17     86       0.38  FRSE  Fr333ab4   51.2   70.0   85.7                   222.2                    160.0                324.9
           17     87      10.74  FRSE  Fr333ab4   51.2   70.0   85.7                   222.2                    160.0                324.9
           17     88       6.75  AGRL  Fr333ab4   67.0   83.0   93.1                   222.2                    160.0                324.9
           17     89     228.54  AGRL  Fr333ab4   67.0   83.0   93.1                   222.2                    160.0                324.9
           17     90      57.33  AGRL  Fr333ab4   67.0   83.0   93.1                   222.2                    160.0                324.9
           18     91     105.33  FRSE  Fr333ab4   51.2   70.0   85.7                   222.2                    160.0                324.9
           18     92      14.07  FRSE  Fr333ab4   51.2   70.0   85.7                   222.2                    160.0                324.9
           18     93     298.32  FRSE  Fr333ab4   51.2   70.0   85.7                   222.2                    160.0                324.9
           18     94     203.92  AGRL  Fr333ab4   67.0   83.0   93.1                   222.2                    160.0                324.9
           18     95      66.83  AGRL  Fr333ab4   67.0   83.0   93.1                   222.2                    160.0                324.9
           18     96       9.41  AGRL  Fr333ab4   67.0   83.0   93.1                   222.2                    160.0                324.9
           19     97       4.28  FRSE  Fr333ab4   51.2   70.0   85.7                   222.2                    160.0                324.9
           19     98     126.34  FRSE  Fr333ab4   51.2   70.0   85.7                   222.2                    160.0                324.9
           19     99      34.22  FRSE  Fr333ab4   51.2   70.0   85.7                   222.2                    160.0                324.9
           19    100     165.99  AGRL  Fr333ab4   67.0   83.0   93.1                   222.2                    160.0                324.9
           19    101      23.39  AGRL  Fr333ab4   67.0   83.0   93.1                   222.2                    160.0                324.9
           19    102     477.52  AGRL  Fr333ab4   67.0   83.0   93.1                   222.2                    160.0                324.9
           20    103     236.91  FRSE  Fr333ab4   51.2   70.0   85.7                   222.2                    160.0                324.9
           20    104      14.26  FRSE  Fr333ab4   51.2   70.0   85.7                   222.2                    160.0                324.9
           20    105      85.37  FRSE  Fr333ab4   51.2   70.0   85.7                   222.2                    160.0                324.9
           20    106      76.43  AGRL  Fr333ab4   67.0   83.0   93.1                   222.2                    160.0                324.9
           20    107     476.38  AGRL  Fr333ab4   67.0   83.0   93.1                   222.2                    160.0                324.9
           20    108    1077.39  AGRL  Fr333ab4   67.0   83.0   93.1                   222.2                    160.0                324.9
           21    109       0.29  FRSE  Fr333ab4   51.2   70.0   85.7                   222.2                    160.0                324.9
           21    110       0.10  FRSE  Fr333ab4   51.2   70.0   85.7                   222.2                    160.0                324.9
           21    111     100.01  AGRL  Fr333ab4   67.0   83.0   93.1                   222.2                    160.0                324.9
           21    112     348.90  AGRL  Fr333ab4   67.0   83.0   93.1                   222.2                    160.0                324.9
           21    113      13.02  AGRL  Fr333ab4   67.0   83.0   93.1                   222.2                    160.0                324.9
           22    114      87.65  FRSE  Fr333ab4   51.2   70.0   85.7                   222.2                    160.0                324.9
           22    115       2.85  FRSE  Fr333ab4   51.2   70.0   85.7                   222.2                    160.0                324.9
           22    116      20.82  FRSE  Fr333ab4   51.2   70.0   85.7                   222.2                    160.0                324.9
           22    117     153.53  AGRL  Fr333ab4   67.0   83.0   93.1                   222.2                    160.0                324.9
           22    118     474.38  AGRL  Fr333ab4   67.0   83.0   93.1                   222.2                    160.0                324.9
           22    119      23.48  AGRL  Fr333ab4   67.0   83.0   93.1                   222.2                    160.0                324.9
           23    120      85.37  FRSE  Fr333ab4   51.2   70.0   85.7                   222.2                    160.0                324.9
           23    121      11.98  FRSE  Fr333ab4   51.2   70.0   85.7                   222.2                    160.0                324.9
           23    122     213.52  FRSE  Fr333ab4   51.2   70.0   85.7                   222.2                    160.0                324.9
           23    123      37.46  AGRL  Fr333ab4   67.0   83.0   93.1                   222.2                    160.0                324.9
           23    124     240.80  AGRL  Fr333ab4   67.0   83.0   93.1                   222.2                    160.0                324.9
           23    125     566.03  AGRL  Fr333ab4   67.0   83.0   93.1                   222.2                    160.0                324.9
           24    126       0.86  FRSE  Fr333ab4   51.2   70.0   85.7                   222.2                    160.0                324.9
           24    127       3.14  FRSE  Fr333ab4   51.2   70.0   85.7                   222.2                    160.0                324.9
           24    128       0.10  FRSE  Fr333ab4   51.2   70.0   85.7                   222.2                    160.0                324.9
           24    129     113.32  AGRL  Fr333ab4   67.0   83.0   93.1                   222.2                    160.0                324.9
           24    130      14.93  AGRL  Fr333ab4   67.0   83.0   93.1                   222.2                    160.0                324.9
           24    131     243.28  AGRL  Fr333ab4   67.0   83.0   93.1                   222.2                    160.0                324.9
           25    132       0.86  FRSE  Fr333ab4   51.2   70.0   85.7                   222.2                    160.0                324.9
           25    133      15.88  AGRL  Fr333ab4   67.0   83.0   93.1                   222.2                    160.0                324.9
           25    134      57.33  AGRL  Fr333ab4   67.0   83.0   93.1                   222.2                    160.0                324.9
           25    135       2.57  AGRL  Fr333ab4   67.0   83.0   93.1                   222.2                    160.0                324.9
           26    136       0.38  FRSE  Fr333ab4   51.2   70.0   85.7                   222.2                    160.0                324.9
           26    137       0.38  FRSE  Fr333ab4   51.2   70.0   85.7                   222.2                    160.0                324.9
           26    138     205.91  AGRL  Fr333ab4   67.0   83.0   93.1                   222.2                    160.0                324.9
           26    139      55.14  AGRL  Fr333ab4   67.0   83.0   93.1                   222.2                    160.0                324.9
           26    140       6.56  AGRL  Fr333ab4   67.0   83.0   93.1                   222.2                    160.0                324.9
           27    141       0.10  FRSE  Fr333ab4   51.2   70.0   85.7                   222.2                    160.0                324.9
           27    142      61.41  AGRL  Fr333ab4   67.0   83.0   93.1                   222.2                    160.0                324.9
           27    143     630.01  AGRL  Fr333ab4   67.0   83.0   93.1                   222.2                    160.0                324.9
           27    144     346.23  AGRL  Fr333ab4   67.0   83.0   93.1                   222.2                    160.0                324.9
           28    145      14.36  AGRL  Fr333ab4   67.0   83.0   93.1                   222.2                    160.0                324.9
           28    146      28.42  AGRL  Fr333ab4   67.0   83.0   93.1                   222.2                    160.0                324.9
           28    147       3.23  AGRL  Fr333ab4   67.0   83.0   93.1                   222.2                    160.0                324.9
           29    148      36.60  AGRL  Fr333ab4   67.0   83.0   93.1                   222.2                    160.0                324.9
           29    149     544.73  AGRL  Fr333ab4   67.0   83.0   93.1                   222.2                    160.0                324.9
           29    150     244.61  AGRL  Fr333ab4   67.0   83.0   93.1                   222.2                    160.0                324.9
           30    151      27.66  FRSE  Fr333ab4   51.2   70.0   85.7                   222.2                    160.0                324.9
           30    152       9.79  FRSE  Fr333ab4   51.2   70.0   85.7                   222.2                    160.0                324.9
           30    153       1.24  FRSE  Fr333ab4   51.2   70.0   85.7                   222.2                    160.0                324.9
           30    154     804.74  AGRL  Fr333ab4   67.0   83.0   93.1                   222.2                    160.0                324.9
           30    155    2193.95  AGRL  Fr333ab4   67.0   83.0   93.1                   222.2                    160.0                324.9
           30    156     124.06  AGRL  Fr333ab4   67.0   83.0   93.1                   222.2                    160.0                324.9
           31    157      36.89  AGRL  Fr333ab4   67.0   83.0   93.1                   222.2                    160.0                324.9
           31    158      63.60  AGRL  Fr333ab4   67.0   83.0   93.1                   222.2                    160.0                324.9
           31    159       4.75  AGRL  Fr333ab4   67.0   83.0   93.1                   222.2                    160.0                324.9

         HRU Input Summary Table 2:
          Sub   HRU   Area(ha)         SoilName Hydgrp MaxRtDpth(mm) Albedo USLE_K USLE_P USLE_LS ProfileAWC(mm) IniSoilH2O(mm)
            1      1      53.24 Fr333ab4494        C           910.00   0.10   0.21   1.00    0.52    160.000         87.240
            1      2     320.95 Fr333ab4494        C           910.00   0.10   0.21   1.00    2.27    160.000         87.240
            1      3     879.75 Fr333ab4494        C           910.00   0.10   0.21   1.00    4.41    160.000         87.240
            1      4     298.41 Fr333ab4494        C           910.00   0.10   0.21   1.00    2.27    160.000         87.240
            1      5    1054.67 Fr333ab4494        C           910.00   0.10   0.21   1.00    4.41    160.000         87.240
            1      6      44.97 Fr333ab4494        C           910.00   0.10   0.21   1.00    0.52    160.000         87.240
            2      7     722.89 Fr333ab4494        C           910.00   0.10   0.21   1.00    4.59    160.000         87.240
            2      8     183.29 Fr333ab4494        C           910.00   0.10   0.21   1.00    2.34    160.000         87.240
            2      9      23.10 Fr333ab4494        C           910.00   0.10   0.21   1.00    0.54    160.000         87.240
            2     10     390.53 Fr333ab4494        C           910.00   0.10   0.21   1.00    4.80    160.000         87.240
            2     11      97.25 Fr333ab4494        C           910.00   0.10   0.21   1.00    2.34    160.000         87.240
            2     12      15.12 Fr333ab4494        C           910.00   0.10   0.21   1.00    0.54    160.000         87.240
            3     13      64.93 Fr333ab4494        C           910.00   0.10   0.21   1.00    2.27    160.000         87.240
            3     14     260.67 Fr333ab4494        C           910.00   0.10   0.21   1.00    4.48    160.000         87.240
            3     15       9.51 Fr333ab4494        C           910.00   0.10   0.21   1.00    0.54    160.000         87.240
            3     16      68.73 Fr333ab4494        C           910.00   0.10   0.21   1.00    2.24    160.000         87.240
            3     17     209.43 Fr333ab4494        C           910.00   0.10   0.21   1.00    4.10    160.000         87.240
            3     18      11.88 Fr333ab4494        C           910.00   0.10   0.21   1.00    0.52    160.000         87.240
            4     19      50.10 Fr333ab4494        C           910.00   0.10   0.21   1.00    2.27    160.000         87.240
            4     20       7.61 Fr333ab4494        C           910.00   0.10   0.21   1.00    0.50    160.000         87.240
            4     21     194.41 Fr333ab4494        C           910.00   0.10   0.21   1.00    4.19    160.000         87.240
            4     22       9.13 Fr333ab4494        C           910.00   0.10   0.21   1.00    0.54    160.000         87.240
            4     23     199.55 Fr333ab4494        C           910.00   0.10   0.21   1.00    4.71    160.000         87.240
            4     24      58.18 Fr333ab4494        C           910.00   0.10   0.21   1.00    2.24    160.000         87.240
            5     25       6.27 Fr333ab4494        C           910.00   0.10   0.21   1.00    0.52    160.000         87.240
            5     26      44.68 Fr333ab4494        C           910.00   0.10   0.21   1.00    2.37    160.000         87.240
            5     27     125.49 Fr333ab4494        C           910.00   0.10   0.21   1.00    3.44    160.000         87.240
            5     28      75.10 Fr333ab4494        C           910.00   0.10   0.21   1.00    2.34    160.000         87.240
            5     29     255.06 Fr333ab4494        C           910.00   0.10   0.21   1.00    3.94    160.000         87.240
            5     30      10.55 Fr333ab4494        C           910.00   0.10   0.21   1.00    0.50    160.000         87.240
            6     31       0.29 Fr333ab4494        C           910.00   0.10   0.21   1.00    0.28    160.000         87.240
            6     32       5.89 Fr333ab4494        C           910.00   0.10   0.21   1.00    2.51    160.000         87.240
            6     33      10.84 Fr333ab4494        C           910.00   0.10   0.21   1.00    3.07    160.000         87.240
            6     34     197.17 Fr333ab4494        C           910.00   0.10   0.21   1.00    2.31    160.000         87.240
            6     35     603.67 Fr333ab4494        C           910.00   0.10   0.21   1.00    3.67    160.000         87.240
            6     36      30.71 Fr333ab4494        C           910.00   0.10   0.21   1.00    0.54    160.000         87.240
            7     37      76.43 Fr333ab4494        C           910.00   0.10   0.21   1.00    2.27    160.000         87.240
            7     38      13.02 Fr333ab4494        C           910.00   0.10   0.21   1.00    0.52    160.000         87.240
            7     39     252.78 Fr333ab4494        C           910.00   0.10   0.21   1.00    3.62    160.000         87.240
            7     40       9.51 Fr333ab4494        C           910.00   0.10   0.21   1.00    0.56    160.000         87.240
            7     41     182.72 Fr333ab4494        C           910.00   0.10   0.21   1.00    3.92    160.000         87.240
            7     42      55.23 Fr333ab4494        C           910.00   0.10   0.21   1.00    2.34    160.000         87.240
            8     43      13.78 Fr333ab4494        C           910.00   0.10   0.21   1.00    0.54    160.000         87.240
            8     44     101.15 Fr333ab4494        C           910.00   0.10   0.21   1.00    2.27    160.000         87.240
            8     45     307.73 Fr333ab4494        C           910.00   0.10   0.21   1.00    3.67    160.000         87.240
            8     46      73.58 Fr333ab4494        C           910.00   0.10   0.21   1.00    2.31    160.000         87.240
            8     47     235.10 Fr333ab4494        C           910.00   0.10   0.21   1.00    3.92    160.000         87.240
            8     48      12.45 Fr333ab4494        C           910.00   0.10   0.21   1.00    0.52    160.000         87.240
            9     49       0.10 Fr333ab4494        C           910.00   0.10   0.21   1.00    1.31    160.000         87.240
            9     50       0.19 Fr333ab4494        C           910.00   0.10   0.21   1.00    3.92    160.000         87.240
            9     51     421.62 Fr333ab4494        C           910.00   0.10   0.21   1.00    3.50    160.000         87.240
            9     52     160.85 Fr333ab4494        C           910.00   0.10   0.21   1.00    2.27    160.000         87.240
            9     53      28.62 Fr333ab4494        C           910.00   0.10   0.21   1.00    0.54    160.000         87.240
           10     54       2.95 Fr333ab4494        C           910.00   0.10   0.21   1.00    2.17    160.000         87.240
           10     55       0.38 Fr333ab4494        C           910.00   0.10   0.21   1.00    0.29    160.000         87.240
           10     56       6.37 Fr333ab4494        C           910.00   0.10   0.21   1.00    3.17    160.000         87.240
           10     57      14.16 Fr333ab4494        C           910.00   0.10   0.21   1.00    0.54    160.000         87.240
           10     58     101.72 Fr333ab4494        C           910.00   0.10   0.21   1.00    2.31    160.000         87.240
           10     59     306.31 Fr333ab4494        C           910.00   0.10   0.21   1.00    3.82    160.000         87.240
           11     60      50.20 Fr333ab4494        C           910.00   0.10   0.21   1.00    2.27    160.000         87.240
           11     61     135.95 Fr333ab4494        C           910.00   0.10   0.21   1.00    3.82    160.000         87.240
           11     62       8.46 Fr333ab4494        C           910.00   0.10   0.21   1.00    0.52    160.000         87.240
           12     63       0.19 Fr333ab4494        C           910.00   0.10   0.21   1.00    3.08    160.000         87.240
           12     64       8.94 Fr333ab4494        C           910.00   0.10   0.21   1.00    0.54    160.000         87.240
           12     65      61.32 Fr333ab4494        C           910.00   0.10   0.21   1.00    2.24    160.000         87.240
           12     66     198.59 Fr333ab4494        C           910.00   0.10   0.21   1.00    4.08    160.000         87.240
           13     67      23.20 Fr333ab4494        C           910.00   0.10   0.21   1.00    3.82    160.000         87.240
           13     68       6.56 Fr333ab4494        C           910.00   0.10   0.21   1.00    2.27    160.000         87.240
           13     69       1.43 Fr333ab4494        C           910.00   0.10   0.21   1.00    0.48    160.000         87.240
           13     70     420.67 Fr333ab4494        C           910.00   0.10   0.21   1.00    3.64    160.000         87.240
           13     71      17.30 Fr333ab4494        C           910.00   0.10   0.21   1.00    0.52    160.000         87.240
           13     72     125.87 Fr333ab4494        C           910.00   0.10   0.21   1.00    2.31    160.000         87.240
           14     73      17.97 Fr333ab4494        C           910.00   0.10   0.21   1.00    0.52    160.000         87.240
           14     74     420.86 Fr333ab4494        C           910.00   0.10   0.21   1.00    3.84    160.000         87.240
           14     75     120.07 Fr333ab4494        C           910.00   0.10   0.21   1.00    2.34    160.000         87.240
           14     76     399.09 Fr333ab4494        C           910.00   0.10   0.21   1.00    3.62    160.000         87.240
           14     77     132.71 Fr333ab4494        C           910.00   0.10   0.21   1.00    2.31    160.000         87.240
           14     78      19.77 Fr333ab4494        C           910.00   0.10   0.21   1.00    0.54    160.000         87.240
           15     79     353.46 Fr333ab4494        C           910.00   0.10   0.21   1.00    3.73    160.000         87.240
           15     80     127.10 Fr333ab4494        C           910.00   0.10   0.21   1.00    2.27    160.000         87.240
           15     81      21.58 Fr333ab4494        C           910.00   0.10   0.21   1.00    0.56    160.000         87.240
           16     82     344.24 Fr333ab4494        C           910.00   0.10   0.21   1.00    2.24    160.000         87.240
           16     83     694.84 Fr333ab4494        C           910.00   0.10   0.21   1.00    3.35    160.000         87.240
           16     84      61.32 Fr333ab4494        C           910.00   0.10   0.21   1.00    0.52    160.000         87.240
           17     85       3.14 Fr333ab4494        C           910.00   0.10   0.21   1.00    2.14    160.000         87.240
           17     86       0.38 Fr333ab4494        C           910.00   0.10   0.21   1.00    0.58    160.000         87.240
           17     87      10.74 Fr333ab4494        C           910.00   0.10   0.21   1.00    3.60    160.000         87.240
           17     88       6.75 Fr333ab4494        C           910.00   0.10   0.21   1.00    0.56    160.000         87.240
           17     89     228.54 Fr333ab4494        C           910.00   0.10   0.21   1.00    4.61    160.000         87.240
           17     90      57.33 Fr333ab4494        C           910.00   0.10   0.21   1.00    2.31    160.000         87.240
           18     91     105.33 Fr333ab4494        C           910.00   0.10   0.21   1.00    2.34    160.000         87.240
           18     92      14.07 Fr333ab4494        C           910.00   0.10   0.21   1.00    0.50    160.000         87.240
           18     93     298.32 Fr333ab4494        C           910.00   0.10   0.21   1.00    3.60    160.000         87.240
           18     94     203.92 Fr333ab4494        C           910.00   0.10   0.21   1.00    3.58    160.000         87.240
           18     95      66.83 Fr333ab4494        C           910.00   0.10   0.21   1.00    2.37    160.000         87.240
           18     96       9.41 Fr333ab4494        C           910.00   0.10   0.21   1.00    0.56    160.000         87.240
           19     97       4.28 Fr333ab4494        C           910.00   0.10   0.21   1.00    0.54    160.000         87.240
           19     98     126.34 Fr333ab4494        C           910.00   0.10   0.21   1.00    4.01    160.000         87.240
           19     99      34.22 Fr333ab4494        C           910.00   0.10   0.21   1.00    2.31    160.000         87.240
           19    100     165.99 Fr333ab4494        C           910.00   0.10   0.21   1.00    2.31    160.000         87.240
           19    101      23.39 Fr333ab4494        C           910.00   0.10   0.21   1.00    0.52    160.000         87.240
           19    102     477.52 Fr333ab4494        C           910.00   0.10   0.21   1.00    3.64    160.000         87.240
           20    103     236.91 Fr333ab4494        C           910.00   0.10   0.21   1.00    3.84    160.000         87.240
           20    104      14.26 Fr333ab4494        C           910.00   0.10   0.21   1.00    0.52    160.000         87.240
           20    105      85.37 Fr333ab4494        C           910.00   0.10   0.21   1.00    2.24    160.000         87.240
           20    106      76.43 Fr333ab4494        C           910.00   0.10   0.21   1.00    0.50    160.000         87.240
           20    107     476.38 Fr333ab4494        C           910.00   0.10   0.21   1.00    2.27    160.000         87.240
           20    108    1077.39 Fr333ab4494        C           910.00   0.10   0.21   1.00    3.54    160.000         87.240
           21    109       0.29 Fr333ab4494        C           910.00   0.10   0.21   1.00    4.12    160.000         87.240
           21    110       0.10 Fr333ab4494        C           910.00   0.10   0.21   1.00    2.09    160.000         87.240
           21    111     100.01 Fr333ab4494        C           910.00   0.10   0.21   1.00    2.31    160.000         87.240
           21    112     348.90 Fr333ab4494        C           910.00   0.10   0.21   1.00    4.12    160.000         87.240
           21    113      13.02 Fr333ab4494        C           910.00   0.10   0.21   1.00    0.52    160.000         87.240
           22    114      87.65 Fr333ab4494        C           910.00   0.10   0.21   1.00    4.48    160.000         87.240
           22    115       2.85 Fr333ab4494        C           910.00   0.10   0.21   1.00    0.52    160.000         87.240
           22    116      20.82 Fr333ab4494        C           910.00   0.10   0.21   1.00    2.41    160.000         87.240
           22    117     153.53 Fr333ab4494        C           910.00   0.10   0.21   1.00    2.27    160.000         87.240
           22    118     474.38 Fr333ab4494        C           910.00   0.10   0.21   1.00    3.86    160.000         87.240
           22    119      23.48 Fr333ab4494        C           910.00   0.10   0.21   1.00    0.52    160.000         87.240
           23    120      85.37 Fr333ab4494        C           910.00   0.10   0.21   1.00    2.27    160.000         87.240
           23    121      11.98 Fr333ab4494        C           910.00   0.10   0.21   1.00    0.56    160.000         87.240
           23    122     213.52 Fr333ab4494        C           910.00   0.10   0.21   1.00    3.58    160.000         87.240
           23    123      37.46 Fr333ab4494        C           910.00   0.10   0.21   1.00    0.52    160.000         87.240
           23    124     240.80 Fr333ab4494        C           910.00   0.10   0.21   1.00    2.31    160.000         87.240
           23    125     566.03 Fr333ab4494        C           910.00   0.10   0.21   1.00    3.17    160.000         87.240
           24    126       0.86 Fr333ab4494        C           910.00   0.10   0.21   1.00    2.04    160.000         87.240
           24    127       3.14 Fr333ab4494        C           910.00   0.10   0.21   1.00    2.97    160.000         87.240
           24    128       0.10 Fr333ab4494        C           910.00   0.10   0.21   1.00    0.82    160.000         87.240
           24    129     113.32 Fr333ab4494        C           910.00   0.10   0.21   1.00    2.24    160.000         87.240
           24    130      14.93 Fr333ab4494        C           910.00   0.10   0.21   1.00    0.54    160.000         87.240
           24    131     243.28 Fr333ab4494        C           910.00   0.10   0.21   1.00    3.09    160.000         87.240
           25    132       0.86 Fr333ab4494        C           910.00   0.10   0.21   1.00    9.95    160.000         87.240
           25    133      15.88 Fr333ab4494        C           910.00   0.10   0.21   1.00    2.27    160.000         87.240
           25    134      57.33 Fr333ab4494        C           910.00   0.10   0.21   1.00    3.99    160.000         87.240
           25    135       2.57 Fr333ab4494        C           910.00   0.10   0.21   1.00    0.54    160.000         87.240
           26    136       0.38 Fr333ab4494        C           910.00   0.10   0.21   1.00    2.73    160.000         87.240
           26    137       0.38 Fr333ab4494        C           910.00   0.10   0.21   1.00    6.29    160.000         87.240
           26    138     205.91 Fr333ab4494        C           910.00   0.10   0.21   1.00    4.10    160.000         87.240
           26    139      55.14 Fr333ab4494        C           910.00   0.10   0.21   1.00    2.27    160.000         87.240
           26    140       6.56 Fr333ab4494        C           910.00   0.10   0.21   1.00    0.52    160.000         87.240
           27    141       0.10 Fr333ab4494        C           910.00   0.10   0.21   1.00    1.95    160.000         87.240
           27    142      61.41 Fr333ab4494        C           910.00   0.10   0.21   1.00    0.52    160.000         87.240
           27    143     630.01 Fr333ab4494        C           910.00   0.10   0.21   1.00    3.21    160.000         87.240
           27    144     346.23 Fr333ab4494        C           910.00   0.10   0.21   1.00    2.21    160.000         87.240
           28    145      14.36 Fr333ab4494        C           910.00   0.10   0.21   1.00    2.21    160.000         87.240
           28    146      28.42 Fr333ab4494        C           910.00   0.10   0.21   1.00    3.67    160.000         87.240
           28    147       3.23 Fr333ab4494        C           910.00   0.10   0.21   1.00    0.56    160.000         87.240
           29    148      36.60 Fr333ab4494        C           910.00   0.10   0.21   1.00    0.52    160.000         87.240
           29    149     544.73 Fr333ab4494        C           910.00   0.10   0.21   1.00    3.19    160.000         87.240
           29    150     244.61 Fr333ab4494        C           910.00   0.10   0.21   1.00    2.31    160.000         87.240
           30    151      27.66 Fr333ab4494        C           910.00   0.10   0.21   1.00    5.29    160.000         87.240
           30    152       9.79 Fr333ab4494        C           910.00   0.10   0.21   1.00    2.21    160.000         87.240
           30    153       1.24 Fr333ab4494        C           910.00   0.10   0.21   1.00    0.60    160.000         87.240
           30    154     804.74 Fr333ab4494        C           910.00   0.10   0.21   1.00    2.27    160.000         87.240
           30    155    2193.95 Fr333ab4494        C           910.00   0.10   0.21   1.00    3.73    160.000         87.240
           30    156     124.06 Fr333ab4494        C           910.00   0.10   0.21   1.00    0.52    160.000         87.240
           31    157      36.89 Fr333ab4494        C           910.00   0.10   0.21   1.00    2.27    160.000         87.240
           31    158      63.60 Fr333ab4494        C           910.00   0.10   0.21   1.00    3.15    160.000         87.240
           31    159       4.75 Fr333ab4494        C           910.00   0.10   0.21   1.00    0.54    160.000         87.240

         HRU Input Summary Table 3:
          Sub   HRU   Area(ha) Urban Irrig DrainTiles Pothole Pstcide Biomix Septic
            1      1      53.24                                          0.20 x
            1      2     320.95                                          0.20 x
            1      3     879.75                                          0.20 x
            1      4     298.41                                          0.20 x
            1      5    1054.67                                          0.20 x
            1      6      44.97                                          0.20 x
            2      7     722.89                                          0.20 x
            2      8     183.29                                          0.20 x
            2      9      23.10                                          0.20 x
            2     10     390.53                                          0.20 x
            2     11      97.25                                          0.20 x
            2     12      15.12                                          0.20 x
            3     13      64.93                                          0.20 x
            3     14     260.67                                          0.20 x
            3     15       9.51                                          0.20 x
            3     16      68.73                                          0.20 x
            3     17     209.43                                          0.20 x
            3     18      11.88                                          0.20 x
            4     19      50.10                                          0.20 x
            4     20       7.61                                          0.20 x
            4     21     194.41                                          0.20 x
            4     22       9.13                                          0.20 x
            4     23     199.55                                          0.20 x
            4     24      58.18                                          0.20 x
            5     25       6.27                                          0.20 x
            5     26      44.68                                          0.20 x
            5     27     125.49                                          0.20 x
            5     28      75.10                                          0.20 x
            5     29     255.06                                          0.20 x
            5     30      10.55                                          0.20 x
            6     31       0.29                                          0.20 x
            6     32       5.89                                          0.20 x
            6     33      10.84                                          0.20 x
            6     34     197.17                                          0.20 x
            6     35     603.67                                          0.20 x
            6     36      30.71                                          0.20 x
            7     37      76.43                                          0.20 x
            7     38      13.02                                          0.20 x
            7     39     252.78                                          0.20 x
            7     40       9.51                                          0.20 x
            7     41     182.72                                          0.20 x
            7     42      55.23                                          0.20 x
            8     43      13.78                                          0.20 x
            8     44     101.15                                          0.20 x
            8     45     307.73                                          0.20 x
            8     46      73.58                                          0.20 x
            8     47     235.10                                          0.20 x
            8     48      12.45                                          0.20 x
            9     49       0.10                                          0.20 x
            9     50       0.19                                          0.20 x
            9     51     421.62                                          0.20 x
            9     52     160.85                                          0.20 x
            9     53      28.62                                          0.20 x
           10     54       2.95                                          0.20 x
           10     55       0.38                                          0.20 x
           10     56       6.37                                          0.20 x
           10     57      14.16                                          0.20 x
           10     58     101.72                                          0.20 x
           10     59     306.31                                          0.20 x
           11     60      50.20                                          0.20 x
           11     61     135.95                                          0.20 x
           11     62       8.46                                          0.20 x
           12     63       0.19                                          0.20 x
           12     64       8.94                                          0.20 x
           12     65      61.32                                          0.20 x
           12     66     198.59                                          0.20 x
           13     67      23.20                                          0.20 x
           13     68       6.56                                          0.20 x
           13     69       1.43                                          0.20 x
           13     70     420.67                                          0.20 x
           13     71      17.30                                          0.20 x
           13     72     125.87                                          0.20 x
           14     73      17.97                                          0.20 x
           14     74     420.86                                          0.20 x
           14     75     120.07                                          0.20 x
           14     76     399.09                                          0.20 x
           14     77     132.71                                          0.20 x
           14     78      19.77                                          0.20 x
           15     79     353.46                                          0.20 x
           15     80     127.10                                          0.20 x
           15     81      21.58                                          0.20 x
           16     82     344.24                                          0.20 x
           16     83     694.84                                          0.20 x
           16     84      61.32                                          0.20 x
           17     85       3.14                                          0.20 x
           17     86       0.38                                          0.20 x
           17     87      10.74                                          0.20 x
           17     88       6.75                                          0.20 x
           17     89     228.54                                          0.20 x
           17     90      57.33                                          0.20 x
           18     91     105.33                                          0.20 x
           18     92      14.07                                          0.20 x
           18     93     298.32                                          0.20 x
           18     94     203.92                                          0.20 x
           18     95      66.83                                          0.20 x
           18     96       9.41                                          0.20 x
           19     97       4.28                                          0.20 x
           19     98     126.34                                          0.20 x
           19     99      34.22                                          0.20 x
           19    100     165.99                                          0.20 x
           19    101      23.39                                          0.20 x
           19    102     477.52                                          0.20 x
           20    103     236.91                                          0.20 x
           20    104      14.26                                          0.20 x
           20    105      85.37                                          0.20 x
           20    106      76.43                                          0.20 x
           20    107     476.38                                          0.20 x
           20    108    1077.39                                          0.20 x
           21    109       0.29                                          0.20 x
           21    110       0.10                                          0.20 x
           21    111     100.01                                          0.20 x
           21    112     348.90                                          0.20 x
           21    113      13.02                                          0.20 x
           22    114      87.65                                          0.20 x
           22    115       2.85                                          0.20 x
           22    116      20.82                                          0.20 x
           22    117     153.53                                          0.20 x
           22    118     474.38                                          0.20 x
           22    119      23.48                                          0.20 x
           23    120      85.37                                          0.20 x
           23    121      11.98                                          0.20 x
           23    122     213.52                                          0.20 x
           23    123      37.46                                          0.20 x
           23    124     240.80                                          0.20 x
           23    125     566.03                                          0.20 x
           24    126       0.86                                          0.20 x
           24    127       3.14                                          0.20 x
           24    128       0.10                                          0.20 x
           24    129     113.32                                          0.20 x
           24    130      14.93                                          0.20 x
           24    131     243.28                                          0.20 x
           25    132       0.86                                          0.20 x
           25    133      15.88                                          0.20 x
           25    134      57.33                                          0.20 x
           25    135       2.57                                          0.20 x
           26    136       0.38                                          0.20 x
           26    137       0.38                                          0.20 x
           26    138     205.91                                          0.20 x
           26    139      55.14                                          0.20 x
           26    140       6.56                                          0.20 x
           27    141       0.10                                          0.20 x
           27    142      61.41                                          0.20 x
           27    143     630.01                                          0.20 x
           27    144     346.23                                          0.20 x
           28    145      14.36                                          0.20 x
           28    146      28.42                                          0.20 x
           28    147       3.23                                          0.20 x
           29    148      36.60                                          0.20 x
           29    149     544.73                                          0.20 x
           29    150     244.61                                          0.20 x
           30    151      27.66                                          0.20 x
           30    152       9.79                                          0.20 x
           30    153       1.24                                          0.20 x
           30    154     804.74                                          0.20 x
           30    155    2193.95                                          0.20 x
           30    156     124.06                                          0.20 x
           31    157      36.89                                          0.20 x
           31    158      63.60                                          0.20 x
           31    159       4.75                                          0.20 x

         HRU Input Summary Table 4 (Groundwater):
          Sub   HRU   Area(ha) GWdelay(days), GWalpha(days) GWQmin(mm) GWrevap Revapmin(mm) Deepfr NO3(ppm) SolP(ppm)
            1      1      53.24        31.000         0.048   1000.000   0.020      750.000  0.050    0.000     0.000
            1      2     320.95        31.000         0.048   1000.000   0.020      750.000  0.050    0.000     0.000
            1      3     879.75        31.000         0.048   1000.000   0.020      750.000  0.050    0.000     0.000
            1      4     298.41        31.000         0.048   1000.000   0.020      750.000  0.050    0.000     0.000
            1      5    1054.67        31.000         0.048   1000.000   0.020      750.000  0.050    0.000     0.000
            1      6      44.97        31.000         0.048   1000.000   0.020      750.000  0.050    0.000     0.000
            2      7     722.89        31.000         0.048   1000.000   0.020      750.000  0.050    0.000     0.000
            2      8     183.29        31.000         0.048   1000.000   0.020      750.000  0.050    0.000     0.000
            2      9      23.10        31.000         0.048   1000.000   0.020      750.000  0.050    0.000     0.000
            2     10     390.53        31.000         0.048   1000.000   0.020      750.000  0.050    0.000     0.000
            2     11      97.25        31.000         0.048   1000.000   0.020      750.000  0.050    0.000     0.000
            2     12      15.12        31.000         0.048   1000.000   0.020      750.000  0.050    0.000     0.000
            3     13      64.93        31.000         0.048   1000.000   0.020      750.000  0.050    0.000     0.000
            3     14     260.67        31.000         0.048   1000.000   0.020      750.000  0.050    0.000     0.000
            3     15       9.51        31.000         0.048   1000.000   0.020      750.000  0.050    0.000     0.000
            3     16      68.73        31.000         0.048   1000.000   0.020      750.000  0.050    0.000     0.000
            3     17     209.43        31.000         0.048   1000.000   0.020      750.000  0.050    0.000     0.000
            3     18      11.88        31.000         0.048   1000.000   0.020      750.000  0.050    0.000     0.000
            4     19      50.10        31.000         0.048   1000.000   0.020      750.000  0.050    0.000     0.000
            4     20       7.61        31.000         0.048   1000.000   0.020      750.000  0.050    0.000     0.000
            4     21     194.41        31.000         0.048   1000.000   0.020      750.000  0.050    0.000     0.000
            4     22       9.13        31.000         0.048   1000.000   0.020      750.000  0.050    0.000     0.000
            4     23     199.55        31.000         0.048   1000.000   0.020      750.000  0.050    0.000     0.000
            4     24      58.18        31.000         0.048   1000.000   0.020      750.000  0.050    0.000     0.000
            5     25       6.27        31.000         0.048   1000.000   0.020      750.000  0.050    0.000     0.000
            5     26      44.68        31.000         0.048   1000.000   0.020      750.000  0.050    0.000     0.000
            5     27     125.49        31.000         0.048   1000.000   0.020      750.000  0.050    0.000     0.000
            5     28      75.10        31.000         0.048   1000.000   0.020      750.000  0.050    0.000     0.000
            5     29     255.06        31.000         0.048   1000.000   0.020      750.000  0.050    0.000     0.000
            5     30      10.55        31.000         0.048   1000.000   0.020      750.000  0.050    0.000     0.000
            6     31       0.29        31.000         0.048   1000.000   0.020      750.000  0.050    0.000     0.000
            6     32       5.89        31.000         0.048   1000.000   0.020      750.000  0.050    0.000     0.000
            6     33      10.84        31.000         0.048   1000.000   0.020      750.000  0.050    0.000     0.000
            6     34     197.17        31.000         0.048   1000.000   0.020      750.000  0.050    0.000     0.000
            6     35     603.67        31.000         0.048   1000.000   0.020      750.000  0.050    0.000     0.000
            6     36      30.71        31.000         0.048   1000.000   0.020      750.000  0.050    0.000     0.000
            7     37      76.43        31.000         0.048   1000.000   0.020      750.000  0.050    0.000     0.000
            7     38      13.02        31.000         0.048   1000.000   0.020      750.000  0.050    0.000     0.000
            7     39     252.78        31.000         0.048   1000.000   0.020      750.000  0.050    0.000     0.000
            7     40       9.51        31.000         0.048   1000.000   0.020      750.000  0.050    0.000     0.000
            7     41     182.72        31.000         0.048   1000.000   0.020      750.000  0.050    0.000     0.000
            7     42      55.23        31.000         0.048   1000.000   0.020      750.000  0.050    0.000     0.000
            8     43      13.78        31.000         0.048   1000.000   0.020      750.000  0.050    0.000     0.000
            8     44     101.15        31.000         0.048   1000.000   0.020      750.000  0.050    0.000     0.000
            8     45     307.73        31.000         0.048   1000.000   0.020      750.000  0.050    0.000     0.000
            8     46      73.58        31.000         0.048   1000.000   0.020      750.000  0.050    0.000     0.000
            8     47     235.10        31.000         0.048   1000.000   0.020      750.000  0.050    0.000     0.000
            8     48      12.45        31.000         0.048   1000.000   0.020      750.000  0.050    0.000     0.000
            9     49       0.10        31.000         0.048   1000.000   0.020      750.000  0.050    0.000     0.000
            9     50       0.19        31.000         0.048   1000.000   0.020      750.000  0.050    0.000     0.000
            9     51     421.62        31.000         0.048   1000.000   0.020      750.000  0.050    0.000     0.000
            9     52     160.85        31.000         0.048   1000.000   0.020      750.000  0.050    0.000     0.000
            9     53      28.62        31.000         0.048   1000.000   0.020      750.000  0.050    0.000     0.000
           10     54       2.95        31.000         0.048   1000.000   0.020      750.000  0.050    0.000     0.000
           10     55       0.38        31.000         0.048   1000.000   0.020      750.000  0.050    0.000     0.000
           10     56       6.37        31.000         0.048   1000.000   0.020      750.000  0.050    0.000     0.000
           10     57      14.16        31.000         0.048   1000.000   0.020      750.000  0.050    0.000     0.000
           10     58     101.72        31.000         0.048   1000.000   0.020      750.000  0.050    0.000     0.000
           10     59     306.31        31.000         0.048   1000.000   0.020      750.000  0.050    0.000     0.000
           11     60      50.20        31.000         0.048   1000.000   0.020      750.000  0.050    0.000     0.000
           11     61     135.95        31.000         0.048   1000.000   0.020      750.000  0.050    0.000     0.000
           11     62       8.46        31.000         0.048   1000.000   0.020      750.000  0.050    0.000     0.000
           12     63       0.19        31.000         0.048   1000.000   0.020      750.000  0.050    0.000     0.000
           12     64       8.94        31.000         0.048   1000.000   0.020      750.000  0.050    0.000     0.000
           12     65      61.32        31.000         0.048   1000.000   0.020      750.000  0.050    0.000     0.000
           12     66     198.59        31.000         0.048   1000.000   0.020      750.000  0.050    0.000     0.000
           13     67      23.20        31.000         0.048   1000.000   0.020      750.000  0.050    0.000     0.000
           13     68       6.56        31.000         0.048   1000.000   0.020      750.000  0.050    0.000     0.000
           13     69       1.43        31.000         0.048   1000.000   0.020      750.000  0.050    0.000     0.000
           13     70     420.67        31.000         0.048   1000.000   0.020      750.000  0.050    0.000     0.000
           13     71      17.30        31.000         0.048   1000.000   0.020      750.000  0.050    0.000     0.000
           13     72     125.87        31.000         0.048   1000.000   0.020      750.000  0.050    0.000     0.000
           14     73      17.97        31.000         0.048   1000.000   0.020      750.000  0.050    0.000     0.000
           14     74     420.86        31.000         0.048   1000.000   0.020      750.000  0.050    0.000     0.000
           14     75     120.07        31.000         0.048   1000.000   0.020      750.000  0.050    0.000     0.000
           14     76     399.09        31.000         0.048   1000.000   0.020      750.000  0.050    0.000     0.000
           14     77     132.71        31.000         0.048   1000.000   0.020      750.000  0.050    0.000     0.000
           14     78      19.77        31.000         0.048   1000.000   0.020      750.000  0.050    0.000     0.000
           15     79     353.46        31.000         0.048   1000.000   0.020      750.000  0.050    0.000     0.000
           15     80     127.10        31.000         0.048   1000.000   0.020      750.000  0.050    0.000     0.000
           15     81      21.58        31.000         0.048   1000.000   0.020      750.000  0.050    0.000     0.000
           16     82     344.24        31.000         0.048   1000.000   0.020      750.000  0.050    0.000     0.000
           16     83     694.84        31.000         0.048   1000.000   0.020      750.000  0.050    0.000     0.000
           16     84      61.32        31.000         0.048   1000.000   0.020      750.000  0.050    0.000     0.000
           17     85       3.14        31.000         0.048   1000.000   0.020      750.000  0.050    0.000     0.000
           17     86       0.38        31.000         0.048   1000.000   0.020      750.000  0.050    0.000     0.000
           17     87      10.74        31.000         0.048   1000.000   0.020      750.000  0.050    0.000     0.000
           17     88       6.75        31.000         0.048   1000.000   0.020      750.000  0.050    0.000     0.000
           17     89     228.54        31.000         0.048   1000.000   0.020      750.000  0.050    0.000     0.000
           17     90      57.33        31.000         0.048   1000.000   0.020      750.000  0.050    0.000     0.000
           18     91     105.33        31.000         0.048   1000.000   0.020      750.000  0.050    0.000     0.000
           18     92      14.07        31.000         0.048   1000.000   0.020      750.000  0.050    0.000     0.000
           18     93     298.32        31.000         0.048   1000.000   0.020      750.000  0.050    0.000     0.000
           18     94     203.92        31.000         0.048   1000.000   0.020      750.000  0.050    0.000     0.000
           18     95      66.83        31.000         0.048   1000.000   0.020      750.000  0.050    0.000     0.000
           18     96       9.41        31.000         0.048   1000.000   0.020      750.000  0.050    0.000     0.000
           19     97       4.28        31.000         0.048   1000.000   0.020      750.000  0.050    0.000     0.000
           19     98     126.34        31.000         0.048   1000.000   0.020      750.000  0.050    0.000     0.000
           19     99      34.22        31.000         0.048   1000.000   0.020      750.000  0.050    0.000     0.000
           19    100     165.99        31.000         0.048   1000.000   0.020      750.000  0.050    0.000     0.000
           19    101      23.39        31.000         0.048   1000.000   0.020      750.000  0.050    0.000     0.000
           19    102     477.52        31.000         0.048   1000.000   0.020      750.000  0.050    0.000     0.000
           20    103     236.91        31.000         0.048   1000.000   0.020      750.000  0.050    0.000     0.000
           20    104      14.26        31.000         0.048   1000.000   0.020      750.000  0.050    0.000     0.000
           20    105      85.37        31.000         0.048   1000.000   0.020      750.000  0.050    0.000     0.000
           20    106      76.43        31.000         0.048   1000.000   0.020      750.000  0.050    0.000     0.000
           20    107     476.38        31.000         0.048   1000.000   0.020      750.000  0.050    0.000     0.000
           20    108    1077.39        31.000         0.048   1000.000   0.020      750.000  0.050    0.000     0.000
           21    109       0.29        31.000         0.048   1000.000   0.020      750.000  0.050    0.000     0.000
           21    110       0.10        31.000         0.048   1000.000   0.020      750.000  0.050    0.000     0.000
           21    111     100.01        31.000         0.048   1000.000   0.020      750.000  0.050    0.000     0.000
           21    112     348.90        31.000         0.048   1000.000   0.020      750.000  0.050    0.000     0.000
           21    113      13.02        31.000         0.048   1000.000   0.020      750.000  0.050    0.000     0.000
           22    114      87.65        31.000         0.048   1000.000   0.020      750.000  0.050    0.000     0.000
           22    115       2.85        31.000         0.048   1000.000   0.020      750.000  0.050    0.000     0.000
           22    116      20.82        31.000         0.048   1000.000   0.020      750.000  0.050    0.000     0.000
           22    117     153.53        31.000         0.048   1000.000   0.020      750.000  0.050    0.000     0.000
           22    118     474.38        31.000         0.048   1000.000   0.020      750.000  0.050    0.000     0.000
           22    119      23.48        31.000         0.048   1000.000   0.020      750.000  0.050    0.000     0.000
           23    120      85.37        31.000         0.048   1000.000   0.020      750.000  0.050    0.000     0.000
           23    121      11.98        31.000         0.048   1000.000   0.020      750.000  0.050    0.000     0.000
           23    122     213.52        31.000         0.048   1000.000   0.020      750.000  0.050    0.000     0.000
           23    123      37.46        31.000         0.048   1000.000   0.020      750.000  0.050    0.000     0.000
           23    124     240.80        31.000         0.048   1000.000   0.020      750.000  0.050    0.000     0.000
           23    125     566.03        31.000         0.048   1000.000   0.020      750.000  0.050    0.000     0.000
           24    126       0.86        31.000         0.048   1000.000   0.020      750.000  0.050    0.000     0.000
           24    127       3.14        31.000         0.048   1000.000   0.020      750.000  0.050    0.000     0.000
           24    128       0.10        31.000         0.048   1000.000   0.020      750.000  0.050    0.000     0.000
           24    129     113.32        31.000         0.048   1000.000   0.020      750.000  0.050    0.000     0.000
           24    130      14.93        31.000         0.048   1000.000   0.020      750.000  0.050    0.000     0.000
           24    131     243.28        31.000         0.048   1000.000   0.020      750.000  0.050    0.000     0.000
           25    132       0.86        31.000         0.048   1000.000   0.020      750.000  0.050    0.000     0.000
           25    133      15.88        31.000         0.048   1000.000   0.020      750.000  0.050    0.000     0.000
           25    134      57.33        31.000         0.048   1000.000   0.020      750.000  0.050    0.000     0.000
           25    135       2.57        31.000         0.048   1000.000   0.020      750.000  0.050    0.000     0.000
           26    136       0.38        31.000         0.048   1000.000   0.020      750.000  0.050    0.000     0.000
           26    137       0.38        31.000         0.048   1000.000   0.020      750.000  0.050    0.000     0.000
           26    138     205.91        31.000         0.048   1000.000   0.020      750.000  0.050    0.000     0.000
           26    139      55.14        31.000         0.048   1000.000   0.020      750.000  0.050    0.000     0.000
           26    140       6.56        31.000         0.048   1000.000   0.020      750.000  0.050    0.000     0.000
           27    141       0.10        31.000         0.048   1000.000   0.020      750.000  0.050    0.000     0.000
           27    142      61.41        31.000         0.048   1000.000   0.020      750.000  0.050    0.000     0.000
           27    143     630.01        31.000         0.048   1000.000   0.020      750.000  0.050    0.000     0.000
           27    144     346.23        31.000         0.048   1000.000   0.020      750.000  0.050    0.000     0.000
           28    145      14.36        31.000         0.048   1000.000   0.020      750.000  0.050    0.000     0.000
           28    146      28.42        31.000         0.048   1000.000   0.020      750.000  0.050    0.000     0.000
           28    147       3.23        31.000         0.048   1000.000   0.020      750.000  0.050    0.000     0.000
           29    148      36.60        31.000         0.048   1000.000   0.020      750.000  0.050    0.000     0.000
           29    149     544.73        31.000         0.048   1000.000   0.020      750.000  0.050    0.000     0.000
           29    150     244.61        31.000         0.048   1000.000   0.020      750.000  0.050    0.000     0.000
           30    151      27.66        31.000         0.048   1000.000   0.020      750.000  0.050    0.000     0.000
           30    152       9.79        31.000         0.048   1000.000   0.020      750.000  0.050    0.000     0.000
           30    153       1.24        31.000         0.048   1000.000   0.020      750.000  0.050    0.000     0.000
           30    154     804.74        31.000         0.048   1000.000   0.020      750.000  0.050    0.000     0.000
           30    155    2193.95        31.000         0.048   1000.000   0.020      750.000  0.050    0.000     0.000
           30    156     124.06        31.000         0.048   1000.000   0.020      750.000  0.050    0.000     0.000
           31    157      36.89        31.000         0.048   1000.000   0.020      750.000  0.050    0.000     0.000
           31    158      63.60        31.000         0.048   1000.000   0.020      750.000  0.050    0.000     0.000
           31    159       4.75        31.000         0.048   1000.000   0.020      750.000  0.050    0.000     0.000

         Tributary/Main Channel Characteristics
              |--------------Tributary--------------------|---------------------Main---------------------------|
          Sub  Length(km) Slope Width(m) Cond(mm/hr)     N Length(km) Slope Width(m) Depth(m) Cond(mm/hr)     N
            1       15.71 0.033     9.22      0.0000 0.014      11.76 0.015     9.22     0.48      0.0000 0.014
            2        7.89 0.041     6.37      0.0000 0.014       3.88 0.021     6.37     0.38      0.0000 0.014
            3        6.25 0.051     3.87      0.0000 0.014       1.33 0.027     3.87     0.27      0.0000 0.014
            4        6.88 0.029     3.46      0.0000 0.014       0.51 0.014     3.46     0.25      0.0000 0.014
            5        5.36 0.034     3.46      0.0000 0.014       0.35 0.006     3.46     0.25      0.0000 0.014
            6        6.22 0.018     4.65      0.0000 0.014       4.70 0.005    13.38     0.62      0.0000 0.014
            7        6.43 0.030     3.74      0.0000 0.014       0.75 0.039     3.74     0.26      0.0000 0.014
            8        5.92 0.033     4.30      0.0000 0.014       1.67 0.007     4.30     0.29      0.0000 0.014
            9        4.83 0.036     3.82      0.0000 0.014       2.85 0.011    15.14     0.67      0.0000 0.014
           10        4.00 0.040     3.10      0.0000 0.014       3.19 0.009     6.75     0.39      0.0000 0.014
           11        3.24 0.046     1.92      0.0000 0.014       1.51 0.001    17.66     0.74      0.0000 0.014
           12        3.66 0.041     2.34      0.0000 0.014       3.06 0.010     6.82     0.39      0.0000 0.014
           13        5.56 0.030     3.76      0.0000 0.014       0.11 0.147     3.76     0.27      0.0000 0.014
           14        8.95 0.020     5.47      0.0000 0.014       4.52 0.006     5.47     0.34      0.0000 0.014
           15        5.34 0.036     3.40      0.0000 0.014       0.25 0.036     3.40     0.25      0.0000 0.014
           16        7.03 0.023     5.44      0.0000 0.014       5.30 0.006    21.09     0.84      0.0000 0.014
           17        5.05 0.018     2.53      0.0000 0.014       4.12 0.013     7.81     0.43      0.0000 0.014
           18        5.77 0.032     4.14      0.0000 0.014       0.55 0.042     4.14     0.28      0.0000 0.014
           19        9.30 0.020     4.60      0.0000 0.014       3.87 0.013     4.60     0.30      0.0000 0.014
           20       15.01 0.016     7.71      0.0000 0.014      10.09 0.010     7.71     0.43      0.0000 0.014
           21        5.33 0.030     3.23      0.0000 0.014       4.38 0.014    22.23     0.87      0.0000 0.014
           22        6.16 0.037     4.37      0.0000 0.014       3.73 0.019    10.84     0.54      0.0000 0.014
           23       10.07 0.022     5.60      0.0000 0.014       5.16 0.016     5.60     0.35      0.0000 0.014
           24        4.54 0.031     2.85      0.0000 0.014       4.25 0.015    10.27     0.52      0.0000 0.014
           25        1.66 0.069     1.10      0.0000 0.014       1.23 0.002    26.13     0.97      0.0000 0.014
           26        3.20 0.038     2.33      0.0000 0.014       2.95 0.017    12.83     0.60      0.0000 0.014
           27        7.36 0.023     5.25      0.0000 0.014       3.75 0.002    31.62     1.10      0.0000 0.014
           28        1.66 0.045     0.81      0.0000 0.014       0.97 0.017    11.86     0.57      0.0000 0.014
           29        9.04 0.019     4.58      0.0000 0.014       2.96 0.016     4.58     0.30      0.0000 0.014
           30       23.22 0.016    10.25      0.0000 0.014      18.68 0.009    10.25     0.52      0.0000 0.014
           31        1.68 0.043     1.33      0.0000 0.014       0.78 0.008    35.28     1.18      0.0000 0.014
