1
    SWAT Sep 7    VER 2018/Rev 670                                                                       0/ 0/   0      0: 0: 0

    General Input/Output section (file.cio):                                        
    12/22/2020 12:00:00 AM ARCGIS-SWAT interface AV                                 
                                                                                    
         Number of years in run:    4
         Area of watershed:      248.229 km2
1
    SWAT Sep 7    VER 2018/Rev 670                                                  

    General Input/Output section (file.cio):                                        
    12/22/2020 12:00:00 AM ARCGIS-SWAT interface AV                                 
                                                                                    
Annual Summary for Watershed in year    1 of simulation

UNIT                                    PERCO    TILE                           WATER     SED     NO3     NO3     NO3     NO3        N       P       P
TIME     PREC    SURQ    LATQ     GWQ    LATE       Q     SW       ET     PET   YIELD   YIELD    SURQ    LATQ    PERC    CROP  ORGANIC SOLUBLE ORGANIC TILENO3
         (mm)    (mm)    (mm)    (mm)    (mm)    (mm)    (mm)    (mm)    (mm)    (mm)   (t/ha)  ------------------(kg nutrient/ha)-------------------- (kg/ha)
1
    SWAT Sep 7    VER 2018/Rev 670                                                  

    General Input/Output section (file.cio):                                        
    12/22/2020 12:00:00 AM ARCGIS-SWAT interface AV                                 
                                                                                    
Annual Summary for Watershed in year    2 of simulation

UNIT                                    PERCO    TILE                           WATER     SED     NO3     NO3     NO3     NO3        N       P       P
TIME     PREC    SURQ    LATQ     GWQ    LATE       Q     SW       ET     PET   YIELD   YIELD    SURQ    LATQ    PERC    CROP  ORGANIC SOLUBLE ORGANIC TILENO3
         (mm)    (mm)    (mm)    (mm)    (mm)    (mm)    (mm)    (mm)    (mm)    (mm)   (t/ha)  ------------------(kg nutrient/ha)-------------------- (kg/ha)
    1    0.00    0.00    0.07    0.00    0.00    0.00  112.66    1.03    3.50    0.10    0.00    0.00    0.00    0.00    0.00     0.00    0.00    0.00    0.00
    2    0.00    0.00    0.06    0.00    0.00    0.00  111.41    1.25    5.03    0.09    0.00    0.00    0.00    0.00    0.00     0.00    0.00    0.00    0.00
    3    3.20    0.00    0.07    0.00    0.00    0.00  112.21    2.27    4.03    0.10    0.00    0.00    0.00    0.00    0.00     0.00    0.00    0.00    0.00
    4   23.90    5.32    0.27    0.00    0.00    0.00  126.38    2.94    3.45    5.34    1.47    0.01    0.00    0.00    0.00     0.60    0.00    0.13    0.00
    5    0.00    0.00    0.23    0.00    0.00    0.00  123.52    2.87    5.86    0.50    0.00    0.00    0.00    0.00    0.00     0.03    0.00    0.01    0.00
    6    0.00    0.00    0.20    0.00    0.00    0.00  120.84    2.68    6.66    0.26    0.00    0.00    0.00    0.00    0.00     0.00    0.00    0.00    0.00
    7    0.00    0.00    0.17    0.00    0.00    0.00  119.52    1.32    3.76    0.21    0.00    0.00    0.00    0.00    0.00     0.00    0.00    0.00    0.00
    8   41.40   16.08    0.58    0.00    0.00    0.00  139.29    2.57    2.88   15.85    3.71    0.04    0.01    0.00    0.00     1.52    0.01    0.32    0.00
    9    4.20    0.00    0.54    0.00    0.07    0.00  139.75    3.33    4.09    1.28    0.00    0.00    0.01    0.00    0.00     0.07    0.00    0.02    0.00
   10    0.00    0.00    0.46    0.00    0.00    0.00  137.74    2.02    3.90    0.59    0.00    0.00    0.01    0.00    0.00     0.01    0.00    0.00    0.00
   11   11.20    1.19    0.54    0.00    0.85    0.00  143.18    2.72    3.03    1.71    0.11    0.01    0.01    0.05    0.00     0.05    0.00    0.01    0.00
   12   12.40    1.76    0.65    0.00    1.58    0.00  147.25    3.69    4.74    2.40    0.05    0.00    0.01    0.10    0.00     0.07    0.00    0.02    0.00
   13    3.20    0.00    0.57    0.00    0.00    0.00  147.11    3.19    3.83    0.69    0.00    0.00    0.01    0.00    0.00     0.00    0.00    0.00    0.00
   14    0.00    0.00    0.49    0.00    0.00    0.00  145.16    1.96    3.77    0.53    0.00    0.00    0.01    0.00    0.00     0.00    0.00    0.00    0.00
   15    0.30    0.00    0.42    0.00    0.00    0.00  144.10    1.35    2.75    0.45    0.00    0.00    0.01    0.00    0.00     0.00    0.00    0.00    0.00
   16    0.00    0.00    0.36    0.00    0.00    0.00  142.18    1.93    4.37    0.38    0.00    0.00    0.00    0.00    0.00     0.00    0.00    0.00    0.00
   17    0.10    0.00    0.30    0.00    0.00    0.00  140.32    1.96    4.93    0.33    0.00    0.00    0.00    0.00    0.00     0.00    0.00    0.00    0.00
   18    3.20    0.00    0.28    0.00    0.00    0.00  140.07    3.33    5.51    0.30    0.00    0.00    0.00    0.00    0.00     0.00    0.00    0.00    0.00
   19    0.20    0.00    0.24    0.00    0.00    0.00  138.32    1.94    4.58    0.26    0.00    0.00    0.00    0.00    0.00     0.00    0.00    0.00    0.00
   20    0.00    0.00    0.20    0.00    0.00    0.00  136.15    2.18    6.48    0.23    0.00    0.00    0.00    0.00    0.00     0.00    0.00    0.00    0.00
   21   26.70    8.41    0.41    0.00    0.23    0.00  149.26    3.33    3.99    8.41    3.06    0.02    0.00    0.02    0.00     1.00    0.00    0.20    0.00
   22   23.30    7.52    0.70    0.00    5.43    0.00  153.01    4.16    5.56    8.23    0.00    0.02    0.01    0.35    0.00     0.47    0.00    0.10    0.00
   23    0.70    0.00    0.60    0.00    0.02    0.00  149.40    4.29    7.61    1.00    0.00    0.00    0.01    0.00    0.00     0.03    0.00    0.01    0.00
   24    2.00    0.00    0.52    0.00    0.00    0.00  147.79    3.56    5.66    0.60    0.00    0.00    0.01    0.00    0.00     0.00    0.00    0.00    0.00
   25    3.50    0.00    0.47    0.00    0.00    0.00  147.16    3.95    6.60    0.50    0.00    0.00    0.00    0.00    0.00     0.00    0.00    0.00    0.00
   26    1.30    0.00    0.40    0.00    0.00    0.00  145.30    3.17    5.22    0.43    0.00    0.00    0.00    0.00    0.00     0.00    0.00    0.00    0.00
   27    1.60    0.00    0.34    0.00    0.00    0.00  145.51    1.36    1.72    0.37    0.00    0.00    0.00    0.00    0.00     0.00    0.00    0.00    0.00
   28   24.00    7.53    0.54    0.00    1.86    0.00  157.79    0.62    0.68    7.72    2.37    0.01    0.00    0.11    0.00     0.72    0.00    0.15    0.00
   29    1.10    0.00    0.48    0.01    0.34    0.00  155.84    2.59    2.84    0.83    0.00    0.00    0.00    0.02    0.00     0.03    0.00    0.01    0.00
   30    8.30    0.62    0.57    0.01    3.18    0.00  155.64    3.57    4.36    1.24    0.06    0.00    0.01    0.22    0.00     0.03    0.00    0.01    0.00
   31   19.10    5.41    0.83    0.03    6.91    0.00  156.61    3.49    4.20    6.05    1.68    0.01    0.01    0.44    0.00     0.49    0.00    0.10    0.00
    1  214.90   53.84   12.57    0.05   20.48    0.00  156.61   80.61  135.58   67.00   12.51    0.13    0.13    1.30    0.00     5.15    0.03    1.06    0.00
   32    0.20    0.00    0.70    0.04    0.04    0.00  154.34    2.43    4.32    1.00    0.00    0.00    0.01    0.00    0.00     0.02    0.00    0.00    0.00
   33    0.00    0.00    0.60    0.05    0.00    0.00  151.43    2.91    6.38    0.71    0.00    0.00    0.01    0.00    0.00     0.00    0.00    0.00    0.00
   34    0.00    0.00    0.51    0.06    0.00    0.00  148.64    2.79    7.11    0.60    0.00    0.00    0.01    0.00    0.00     0.00    0.00    0.00    0.00
   35    0.00    0.00    0.44    0.07    0.00    0.00  146.58    2.07    5.95    0.53    0.00    0.00    0.01    0.00    0.00     0.00    0.00    0.00    0.00
   36    0.00    0.00    0.37    0.07    0.00    0.00  144.90    1.68    5.24    0.47    0.00    0.00    0.00    0.00    0.00     0.00    0.00    0.00    0.00
   37    7.60    0.27    0.38    0.08    0.00    0.00  148.40    3.38    5.47    0.74    0.03    0.00    0.00    0.00    0.00     0.01    0.00    0.00    0.00
   38    3.80    0.00    0.36    0.09    0.00    0.00  149.89    2.12    2.40    0.48    0.00    0.00    0.00    0.00    0.18     0.00    0.00    0.00    0.00
   39   30.00   12.05    0.66    0.10    5.32    0.00  155.94    4.14    5.06   12.26    2.98    0.01    0.01    0.30    0.25     0.85    0.00    0.17    0.00
   40    0.10    0.00    0.56    0.11    0.01    0.00  153.04    2.99    5.29    1.18    0.00    0.00    0.01    0.00    0.53     0.04    0.00    0.01    0.00
   41    2.90    0.00    0.49    0.11    0.00    0.00  151.68    4.15    5.95    0.70    0.00    0.00    0.00    0.00    0.51     0.01    0.00    0.00    0.00
   42    0.00    0.00    0.42    0.12    0.00    0.00  148.98    2.71    5.68    0.58    0.00    0.00    0.00    0.00    0.61     0.00    0.00    0.00    0.00
   43   17.30    3.91    0.53    0.13    1.16    0.00  156.20    3.82    4.41    4.40    1.23    0.00    0.00    0.05    0.66     0.31    0.00    0.06    0.00
   44   25.40    9.55    0.87    0.14    9.05    0.00  155.76    4.36    5.17   10.29    2.23    0.00    0.01    0.49    0.59     0.81    0.00    0.16    0.00
   45    5.60    0.09    0.81    0.15    0.79    0.00  156.90    3.11    3.11    1.49    0.00    0.00    0.01    0.05    0.46     0.05    0.00    0.01    0.00
   46    1.40    0.00    0.69    0.16    0.00    0.00  155.46    2.84    2.84    0.94    0.00    0.00    0.00    0.00    0.38     0.01    0.00    0.00    0.00
   47    0.00    0.00    0.59    0.17    0.00    0.00  153.07    2.39    3.91    0.80    0.00    0.00    0.00    0.00    0.24     0.00    0.00    0.00    0.00
   48   18.80    5.02    0.78    0.18    4.88    0.00  158.85    1.22    1.22    5.77    1.27    0.00    0.00    0.23    0.09     0.31    0.00    0.06    0.00
   49   25.10    9.63    1.14    0.22   10.92    0.00  157.77    2.37    2.37   10.76    0.30    0.00    0.01    0.51    0.13     0.40    0.00    0.08    0.00
   50    1.20    0.00    0.97    0.25    0.13    0.00  155.96    2.87    2.87    1.68    0.00    0.00    0.01    0.01    0.11     0.02    0.00    0.00    0.00
   51   12.30    1.93    1.06    0.30    4.68    0.00  156.14    3.92    4.15    3.28    0.17    0.83    0.01    0.32    0.29     0.05    0.00    0.01    0.00
   52    9.60    0.95    1.09    0.35    3.50    0.00  159.20    0.85    0.85    2.46    0.05    1.51    0.06    0.38    0.10     0.05    0.00    0.01    0.00
   53    4.20    0.01    1.04    0.39    2.58    0.00  159.49    0.55    0.55    1.52    0.00    0.03    0.08    0.38    0.16     0.00    0.00    0.00    0.00
   54    9.60    1.04    1.15    0.44    6.15    0.00  159.61    0.47    0.47    2.62    0.15    0.05    0.11    1.25    0.15     0.04    0.00    0.01    0.00
   55   18.80    5.54    1.41    0.51    9.84    0.00  158.54    1.58    1.58    7.25    1.64    0.02    0.14    2.59    0.45     0.37    0.00    0.07    0.00
   56   49.30   29.05    1.82    0.58   14.32    0.00  157.63    2.55    2.55   30.39    7.45    0.01    0.18    4.25    0.86     1.80    0.00    0.35    0.00
   57   44.20   24.50    2.13    0.67   13.18    0.00  159.85    0.32    0.32   27.37    2.39    0.01    0.21    4.18    0.15     1.51    0.00    0.29    0.00
   58    2.10    0.00    1.88    0.75    1.52    0.00  157.54    2.48    2.48    3.78    0.00    0.00    0.18    0.54    0.93     0.08    0.00    0.02    0.00
   59    3.90    0.00    1.66    0.83    1.02    0.00  155.85    4.16    4.29    2.69    0.00    0.00    0.16    0.37    1.29     0.01    0.00    0.00    0.00
    2  293.40  103.54   25.15    7.08   89.11    0.00  155.85   71.23  102.01  136.73   19.88    2.50    1.22   15.89    9.12     6.77    0.01    1.32    0.00
   60    3.80    0.00    1.44    0.89    0.00    0.00  154.85    4.61    4.92    2.41    0.00    0.00    0.13    0.00    1.33     0.00    0.00    0.00    0.00
   61    2.90    0.00    1.25    0.96    0.00    0.00  153.42    4.21    4.58    2.25    0.00    0.00    0.11    0.00    1.52     0.00    0.00    0.00    0.00
   62    0.00    0.00    1.07    1.01    0.00    0.00  150.20    3.22    5.22    2.11    0.00    0.00    0.10    0.00    1.29     0.00    0.00    0.00    0.00
   63    2.10    0.00    0.92    1.06    0.00    0.00  147.76    4.49    5.71    2.01    0.00    0.00    0.08    0.00    1.55     0.00    0.00    0.00    0.00
   64    2.00    0.00    0.79    1.11    0.00    0.00  145.81    3.90    4.63    1.93    0.00    0.00    0.07    0.00    1.53     0.00    0.00    0.00    0.00
   65   38.80   18.07    1.02    1.15    4.13    0.00  155.01    5.06    5.39   19.41    2.09    1.19    0.08    0.89    2.27     0.36    0.00    0.07    0.00
   66   17.30    4.32    1.16    1.20    5.88    0.00  155.49    4.59    4.66    7.23    0.00    0.51    0.09    1.95    2.99     0.11    0.00    0.02    0.00
   67   23.80    8.37    1.38    1.25    8.15    0.00  155.45    4.66    4.76   10.93    2.62    0.20    0.10    2.72    3.00     0.34    0.00    0.06    0.00
   68    6.80    0.26    1.27    1.30    1.33    0.00  158.87    1.16    1.16    3.25    0.00    0.04    0.09    0.47    1.20     0.02    0.00    0.00    0.00
   69   75.60   52.91    1.80    1.37   16.42    0.00  159.17    1.04    1.04   53.83   11.67    0.03    0.12    5.29    1.18     1.49    0.00    0.28    0.00
   70   35.60   17.65    2.10    1.45   13.08    0.00  159.25    0.92    0.92   22.44    0.15    0.01    0.13    4.15    1.11     0.61    0.00    0.12    0.00
   71   27.10   11.11    2.29    1.54   11.65    0.00  156.63    3.53    3.53   15.44    2.24    0.01    0.14    3.52    1.32     0.24    0.00    0.04    0.00
   72   10.20    1.16    2.16    1.62    4.23    0.00  156.02    4.04    4.04    5.53    0.00    0.00    0.12    1.23    2.47     0.04    0.00    0.01    0.00
   73    0.80    0.00    1.84    1.70    0.04    0.00  154.29    2.49    3.02    3.73    0.00    0.00    0.11    0.01    2.96     0.00    0.00    0.00    0.00
   74   17.00    4.11    1.85    1.77    5.20    0.00  157.03    3.04    3.04    7.59    0.90    0.00    0.10    1.20    2.21     0.07    0.00    0.01    0.00
   75    4.60    0.02    1.64    1.84    1.13    0.00  155.55    4.47    4.47    3.73    0.00    0.00    0.08    0.27    2.26     0.00    0.00    0.00    0.00
   76    3.70    0.00    1.43    1.90    0.01    0.00  155.01    4.05    4.05    3.40    0.00    0.00    0.07    0.00    3.55     0.00    0.00    0.00    0.00
   77    4.10    0.00    1.25    1.95    0.00    0.00  153.66    5.24    5.33    3.26    0.00    0.00    0.06    0.00    3.43     0.00    0.00    0.00    0.00
   78   10.40    1.14    1.21    2.00    1.93    0.00  157.02    3.02    3.02    4.34    0.17    0.00    0.05    0.25    4.34     0.02    0.00    0.00    0.00
   79   56.90   35.43    1.66    2.06   13.99    0.00  156.95    3.22    3.22   37.65    3.98    0.01    0.05    1.50    2.17     0.38    0.00    0.07    0.00
   80   15.90    3.69    1.73    2.12    6.91    0.00  154.79    5.30    5.35    8.78    0.00    0.00    0.05    0.60    2.45     0.07    0.00    0.01    0.00
   81    0.50    0.00    1.48    2.18    0.04    0.00  150.10    5.16    6.44    4.06    0.00    0.00    0.04    0.00    3.97     0.01    0.00    0.00    0.00
   82    7.10    0.25    1.32    2.23    0.00    0.00  150.87    5.65    5.81    3.90    0.02    0.00    0.04    0.00    3.17     0.00    0.00    0.00    0.00
   83    0.40    0.00    1.13    2.27    0.00    0.00  147.26    4.01    5.15    3.48    0.00    0.00    0.03    0.00    1.10     0.00    0.00    0.00    0.00
   84    2.20    0.00    0.97    2.30    0.00    0.00  143.95    5.46    5.88    3.34    0.00    0.00    0.03    0.00    0.91     0.00    0.00    0.00    0.00
   85    3.50    0.00    0.85    2.33    0.00    0.00  141.08    6.20    6.74    3.24    0.00    0.00    0.02    0.00    0.83     0.00    0.00    0.00    0.00
   86    0.00    0.00    0.73    2.35    0.00    0.00  136.81    4.28    5.72    3.14    0.00    0.00    0.02    0.00    0.78     0.00    0.00    0.00    0.00
   87    1.00    0.00    0.62    2.37    0.00    0.00  133.91    3.89    5.12    3.05    0.00    0.00    0.02    0.00    0.05     0.00    0.00    0.00    0.00
   88   13.90    1.61    0.66    2.38    0.00    0.00  140.06    5.29    5.81    4.63    0.20    0.35    0.01    0.00    0.04     0.02    0.00    0.00    0.00
   89    3.10    0.00    0.58    2.39    0.00    0.00  138.93    4.10    4.45    3.11    0.00    0.01    0.01    0.00    1.93     0.00    0.00    0.00    0.00
   90    0.00    0.00    0.50    2.39    0.00    0.00  135.66    3.27    4.45    2.96    0.00    0.00    0.01    0.00    2.29     0.00    0.00    0.00    0.00
    3  391.10  160.09   40.09   54.45   94.13    0.00  135.66  123.54  137.59  256.15   24.05    2.38    2.18   24.06   61.20     3.78    0.00    0.71    0.00
   91    0.40    0.00    0.43    2.39    0.00    0.00  132.90    3.16    4.48    2.88    0.00    0.00    0.01    0.00    2.78     0.00    0.00    0.00    0.00
   92   45.90   21.34    0.68    2.39    1.66    0.00  150.56    3.06    3.12   23.48    5.24    2.48    0.02    0.00    1.44     0.35    0.00    0.06    0.00
   93   15.50    3.07    0.78    2.39    2.57    0.00  157.70    1.35    1.35    7.01    0.00    0.57    0.03    0.01    2.70     0.05    0.00    0.01    0.00
   94    0.20    0.00    0.67    2.39    0.03    0.00  153.81    4.06    4.24    3.37    0.00    0.01    0.02    0.00    5.90     0.00    0.00    0.00    0.00
   95    0.00    0.00    0.57    2.38    0.00    0.00  149.09    4.72    5.64    3.06    0.00    0.00    0.02    0.00    7.34     0.00    0.00    0.00    0.00
   96    0.10    0.00    0.49    2.37    0.00    0.00  145.45    3.74    4.81    2.93    0.00    0.00    0.02    0.00    4.41     0.00    0.00    0.00    0.00
   97   12.00    1.40    0.52    2.35    0.00    0.00  150.60    4.75    4.80    4.27    0.21    0.00    0.01    0.00    1.89     0.01    0.00    0.00    0.00
   98    8.10    0.43    0.53    2.34    0.31    0.00  152.52    4.87    4.92    3.41    0.00    0.00    0.01    0.00    1.99     0.01    0.00    0.00    0.00
   99   20.50    5.98    0.75    2.33    4.92    0.00  157.51    2.57    2.57    8.86    1.05    0.00    0.01    0.05    2.47     0.07    0.00    0.01    0.00
  100   31.30   14.03    1.14    2.33   11.19    0.00  158.82    1.33    1.33   17.16    3.25    0.01    0.01    0.15    0.43     0.23    0.00    0.04    0.00
  101   16.60    4.19    1.35    2.34    8.55    0.00  156.93    3.18    3.18    8.34    0.00    0.00    0.01    0.13    0.06     0.05    0.00    0.01    0.00
  102   16.80    4.18    1.48    2.36    7.18    0.00  157.25    2.85    2.85    8.14    0.71    0.00    0.01    0.12    0.04     0.04    0.00    0.01    0.00
  103    6.40    0.21    1.40    2.37    2.52    0.00  156.75    3.28    3.28    4.26    0.00    0.00    0.01    0.04    0.64     0.01    0.00    0.00    0.00
  104    6.20    0.18    1.30    2.39    1.98    0.00  159.45    0.58    0.58    3.97    0.02    0.00    0.01    0.03    1.36     0.00    0.00    0.00    0.00
  105    1.20    0.00    1.14    2.40    0.47    0.00  156.66    3.34    3.34    3.62    0.00    0.00    0.01    0.01    0.02     0.00    0.00    0.00    0.00
  106    2.30    0.00    0.99    2.40    0.00    0.00  154.27    4.58    4.63    3.46    0.00    0.00    0.01    0.00    0.01     0.00    0.00    0.00    0.00
  107   23.10    7.79    1.20    2.41    7.02    0.00  157.06    3.03    3.03   11.09    1.55    0.00    0.01    0.03    0.99     0.08    0.00    0.02    0.00
  108   54.20   33.05    1.65    2.44   13.78    0.00  159.86    0.32    0.32   36.03   10.18    0.01    0.01    0.02    0.34     0.52    0.00    0.09    0.00
  109   33.20   15.83    1.97    2.48   13.18    0.00  159.82    0.35    0.35   20.94    0.00    0.01    0.00    0.02    0.10     0.17    0.00    0.03    0.00
  110   84.40   61.39    2.43    2.53   17.44    0.00  159.94    0.28    0.28   64.53   13.36    0.02    0.00    0.02    0.07     0.51    0.00    0.09    0.00
  111   50.20   30.11    2.73    2.61   15.33    0.00  159.47    0.73    0.73   36.59    0.27    0.01    0.00    0.02    0.13     0.25    0.00    0.04    0.00
  112   58.00   36.94    3.01    2.69   15.68    0.00  159.47    0.73    0.73   42.56    8.92    0.01    0.00    0.02    0.08     0.23    0.00    0.04    0.00
  113  128.40  103.48    3.37    2.79   18.62    0.00  159.68    0.56    0.56  106.85   23.47    0.03    0.00    0.02    0.09     0.61    0.00    0.11    0.00
  114   30.00   13.33    3.41    2.89   12.52    0.00  158.90    1.26    1.26   23.18    0.00    0.01    0.00    0.01    0.18     0.07    0.00    0.01    0.00
  115   42.00   22.87    3.51    3.01   13.75    0.00  158.79    1.38    1.38   29.54    2.21    0.01    0.00    0.01    0.05     0.03    0.00    0.01    0.00
  116    8.40    0.67    3.21    3.11    4.96    0.00  157.08    2.99    2.99    8.13    0.00    0.00    0.00    0.01    0.07     0.00    0.00    0.00    0.00
  117    4.00    0.00    2.79    3.21    0.70    0.00  156.62    3.39    3.39    6.28    0.00    0.00    0.00    0.00    0.02     0.00    0.00    0.00    0.00
  118    0.30    0.00    2.38    3.29    0.00    0.00  153.81    3.11    3.49    5.80    0.00    0.00    0.00    0.00    0.06     0.00    0.00    0.00    0.00
  119    0.00    0.00    2.03    3.36    0.00    0.00  150.06    3.75    4.51    5.49    0.00    0.00    0.00    0.00    0.05     0.00    0.00    0.00    0.00
  120    0.10    0.00    1.73    3.42    0.00    0.00  145.96    4.19    5.36    5.25    0.00    0.00    0.00    0.00    0.10     0.00    0.00    0.00    0.00
    4  699.80  380.46   49.65   78.13  174.37    0.00  145.96   77.48   83.50  510.47   70.43    3.19    0.26    0.70   35.80     3.30    0.00    0.59    0.00
  121   11.70    1.31    1.58    3.47    0.00    0.00  150.57    5.09    5.21    6.39    0.20    0.00    0.00    0.00    0.03     0.00    0.00    0.00    0.00
  122    4.40    0.00    1.39    3.51    0.00    0.00  150.13    4.58    4.72    5.05    0.00    0.00    0.00    0.00    0.05     0.00    0.00    0.00    0.00
  123    4.50    0.00    1.22    3.55    0.00    0.00  149.92    4.45    4.52    4.88    0.00    0.00    0.00    0.00    0.04     0.00    0.00    0.00    0.00
  124    1.70    0.00    1.05    3.57    0.00    0.00  150.07    1.49    1.52    4.72    0.00    0.00    0.00    0.00    0.04     0.00    0.00    0.00    0.00
  125    0.00    0.00    0.90    3.59    0.00    0.00  145.84    4.24    4.78    4.59    0.00    0.00    0.00    0.00    0.03     0.00    0.00    0.00    0.00
  126    0.70    0.00    0.77    3.60    0.00    0.00  142.82    3.71    4.42    4.47    0.00    0.00    0.00    0.00    0.03     0.00    0.00    0.00    0.00
  127    8.70    0.42    0.74    3.61    0.00    0.00  147.43    3.12    3.23    4.85    0.02    0.06    0.00    0.00    0.51     0.00    0.00    0.00    0.00
  128    9.70    0.74    0.74    3.61    0.25    0.00  151.74    3.70    3.73    5.16    0.13    0.01    0.00    0.00    2.23     0.00    0.00    0.00    0.00
  129   32.90   14.49    1.04    3.61    7.24    0.00  157.50    2.61    2.61   18.60    1.61    0.01    0.00    0.01    1.71     0.02    0.00    0.00    0.00
  130   29.50   12.67    1.37    3.62   10.85    0.00  157.55    2.59    2.59   17.75    0.62    0.01    0.00    0.02    1.72     0.02    0.00    0.00    0.00
  131   78.40   55.20    1.87    3.65   15.75    0.00  156.88    3.32    3.32   58.96    7.52    0.02    0.00    0.00    0.55     0.08    0.00    0.01    0.00
  132    5.60    0.10    1.69    3.68    1.71    0.00  156.24    3.79    3.79    7.75    0.00    0.00    0.00    0.00    0.13     0.00    0.00    0.00    0.00
  133   19.90    5.93    1.81    3.71    7.63    0.00  156.31    3.79    3.79   11.58    0.66    0.00    0.00    0.00    0.04     0.01    0.00    0.00    0.00
  134   11.60    1.66    1.77    3.73    4.61    0.00  158.12    1.95    1.95    7.50    0.00    0.00    0.00    0.00    0.06     0.00    0.00    0.00    0.00
  135   14.30    2.94    1.84    3.76    7.16    0.00  158.21    1.88    1.88    8.63    0.75    0.00    0.00    0.00    0.05     0.01    0.00    0.00    0.00
  136    4.90    0.04    1.68    3.79    2.28    0.00  157.20    2.84    2.84    5.76    0.00    0.00    0.00    0.00    0.05     0.00    0.00    0.00    0.00
  137   12.10    1.90    1.69    3.81    5.53    0.00  158.33    1.74    1.74    7.44    0.36    0.00    0.00    0.00    0.04     0.00    0.00    0.00    0.00
  138   11.30    1.62    1.72    3.84    6.06    0.00  155.27    4.81    4.82    7.29    0.17    0.00    0.00    0.00    0.05     0.00    0.00    0.00    0.00
  139   16.40    3.85    1.76    3.87    5.76    0.00  154.82    5.26    5.29    9.48    0.35    0.00    0.00    0.00    0.04     0.00    0.00    0.00    0.00
  140    0.60    0.00    1.50    3.88    0.02    0.00  150.26    5.14    6.03    5.68    0.00    0.00    0.00    0.00    0.05     0.00    0.00    0.00    0.00
  141    0.50    0.00    1.28    3.90    0.00    0.00  146.26    4.50    5.69    5.32    0.00    0.00    0.00    0.00    0.03     0.00    0.00    0.00    0.00
  142    5.90    0.06    1.14    3.90    0.00    0.00  148.35    3.41    3.55    5.22    0.00    0.00    0.00    0.00    0.03     0.00    0.00    0.00    0.00
  143   20.90    5.86    1.19    3.90    1.89    0.00  158.09    1.94    1.94   10.78    0.81    0.00    0.00    0.00    0.04     0.01    0.00    0.00    0.00
  144   24.40    9.06    1.47    3.91   10.19    0.00  158.91    1.23    1.23   14.37    0.28    0.00    0.00    0.00    0.06     0.01    0.00    0.00    0.00
  145   29.10   12.55    1.77    3.93   11.78    0.00  156.63    3.52    3.53   18.18    0.81    0.00    0.00    0.00    0.06     0.01    0.00    0.00    0.00
  146   18.50    5.12    1.86    3.95    7.51    0.00  158.37    1.73    1.73   11.37    0.87    0.17    0.00    0.01    0.07     0.01    0.00    0.00    0.00
  147    4.40    0.01    1.69    3.97    2.05    0.00  159.50    0.52    0.52    6.09    0.00    0.00    0.00    0.01    1.00     0.00    0.00    0.00    0.00
  148   28.40   12.10    1.96    4.00   12.06    0.00  158.86    1.29    1.29   17.66    2.66    0.00    0.00    0.00    1.94     0.02    0.00    0.00    0.00
  149    0.80    0.00    1.68    4.02    0.14    0.00  157.38    2.10    2.10    6.32    0.00    0.00    0.00    0.00    0.07     0.00    0.00    0.00    0.00
  150    5.00    0.04    1.53    4.04    1.66    0.00  159.44    0.58    0.58    5.81    0.01    0.00    0.00    0.00    0.03     0.00    0.00    0.00    0.00
  151    0.30    0.00    1.31    4.04    0.02    0.00  156.99    2.72    2.72    5.50    0.00    0.00    0.00    0.00    0.46     0.00    0.00    0.00    0.00
    5  417.10  147.66   45.04  117.04  122.15    0.00  156.99   93.66   97.67  313.17   17.83    0.31    0.07    0.07   11.20     0.20    0.00    0.03    0.00
  152    3.10    0.00    1.15    4.05    0.03    0.00  155.40    4.48    4.48    5.32    0.00    0.00    0.00    0.00    0.03     0.00    0.00    0.00    0.00
  153    0.40    0.00    0.98    4.04    0.00    0.00  151.65    4.15    4.66    5.15    0.00    0.00    0.00    0.00    0.09     0.00    0.00    0.00    0.00
  154   70.40   46.38    1.43    4.05   11.49    0.00  155.30    4.85    4.86   49.89    6.04    0.04    0.00    0.00    0.03     0.05    0.00    0.01    0.00
  155   10.20    1.12    1.39    4.05    3.14    0.00  157.06    2.98    2.98    8.41    0.00    0.00    0.00    0.00    0.29     0.00    0.00    0.00    0.00
  156    0.00    0.00    1.19    4.05    0.02    0.00  153.46    3.59    4.06    5.67    0.00    0.00    0.00    0.00    0.06     0.00    0.00    0.00    0.00
  157    0.00    0.00    1.02    4.04    0.00    0.00  149.79    3.67    4.49    5.25    0.00    0.00    0.00    0.00    0.03     0.00    0.00    0.00    0.00
  158    0.00    0.00    0.87    4.02    0.00    0.00  146.60    3.19    4.36    5.04    0.00    0.00    0.00    0.00    0.03     0.00    0.00    0.00    0.00
  159   15.00    2.64    0.88    4.01    0.26    0.00  154.75    3.05    3.05    7.53    0.51    0.00    0.00    0.00    0.03     0.00    0.00    0.00    0.00
  160    6.70    0.23    0.84    3.98    0.88    0.00  155.06    4.69    4.69    5.29    0.00    0.00    0.00    0.00    0.05     0.00    0.00    0.00    0.00
  161    0.20    0.00    0.72    3.96    0.00    0.00  153.27    1.98    2.27    4.84    0.00    0.00    0.00    0.00    0.04     0.00    0.00    0.00    0.00
  162   48.00   26.93    1.14    3.94   10.57    0.00  156.41    3.73    3.73   30.92    6.82    0.01    0.00    0.00    0.03     0.04    0.00    0.01    0.00
  163    9.90    1.05    1.17    3.93    3.88    0.00  156.47    3.59    3.59    7.28    0.00    0.00    0.00    0.00    0.10     0.00    0.00    0.00    0.00
  164    4.00    0.00    1.04    3.91    0.21    0.00  157.19    2.81    2.98    5.28    0.00    0.00    0.00    0.00    0.04     0.00    0.00    0.00    0.00
  165    0.00    0.00    0.89    3.89    0.00    0.00  155.36    1.83    2.32    4.95    0.00    0.00    0.00    0.00    0.03     0.00    0.00    0.00    0.00
  166    0.00    0.00    0.76    3.86    0.00    0.00  152.36    3.00    3.99    4.76    0.00    0.00    0.00    0.00    0.03     0.00    0.00    0.00    0.00
  167    0.00    0.00    0.65    3.83    0.00    0.00  149.13    3.23    4.47    4.62    0.00    0.00    0.00    0.00    0.03     0.00    0.00    0.00    0.00
  168    0.00    0.00    0.56    3.80    0.00    0.00  145.41    3.73    5.18    4.49    0.00    0.00    0.00    0.00    0.03     0.00    0.00    0.00    0.00
  169    4.80    0.00    0.51    3.76    0.00    0.00  145.44    4.51    4.83    4.41    0.00    0.00    0.00    0.00    0.03     0.00    0.00    0.00    0.00
  170    0.00    0.00    0.44    3.72    0.00    0.00  141.96    3.48    4.77    4.30    0.00    0.00    0.00    0.00    0.04     0.00    0.00    0.00    0.00
  171    0.10    0.00    0.38    3.68    0.00    0.00  139.27    2.78    4.19    4.19    0.00    0.00    0.00    0.00    0.03     0.00    0.00    0.00    0.00
  172   16.20    2.77    0.46    3.63    0.00    0.00  148.49    3.27    3.46    6.86    0.53    0.00    0.00    0.00    0.03     0.00    0.00    0.00    0.00
  173    0.30    0.00    0.40    3.59    0.00    0.00  146.89    1.90    2.59    4.24    0.00    0.00    0.00    0.00    0.05     0.00    0.00    0.00    0.00
  174   36.30   16.35    0.69    3.55    4.39    0.00  155.32    4.75    4.88   19.96    2.66    0.01    0.00    0.00    0.03     0.02    0.00    0.00    0.00
  175   18.10    4.79    0.90    3.51    6.39    0.00  157.47    2.62    2.93    9.76    0.01    0.00    0.00    0.00    0.08     0.01    0.00    0.00    0.00
  176    9.00    0.81    0.97    3.48    4.23    0.00  155.73    4.33    4.49    5.65    0.19    0.00    0.00    0.00    0.06     0.00    0.00    0.00    0.00
  177   13.40    2.40    1.08    3.45    4.96    0.00  155.84    4.23    4.44    7.02    0.47    0.00    0.00    0.00    0.04     0.00    0.00    0.00    0.00
  178    0.60    0.00    0.92    3.42    0.03    0.00  152.89    3.52    4.85    4.60    0.00    0.00    0.00    0.00    0.05     0.00    0.00    0.00    0.00
  179    0.00    0.00    0.79    3.39    0.00    0.00  150.68    2.21    3.44    4.33    0.00    0.00    0.00    0.00    0.03     0.00    0.00    0.00    0.00
  180    0.20    0.00    0.67    3.35    0.00    0.00  149.44    1.44    2.74    4.17    0.00    0.00    0.00    0.00    0.03     0.00    0.00    0.00    0.00
  181    0.50    0.00    0.58    3.32    0.00    0.00  148.63    1.31    2.39    4.03    0.00    0.00    0.00    0.00    0.03     0.00    0.00    0.00    0.00
    6  267.40  105.48   25.42  113.25   50.49    0.00  148.63   98.89  116.15  248.22   17.23    0.06    0.02    0.01    1.47     0.13    0.00    0.02    0.00
  182    0.00    0.00    0.49    3.28    0.00    0.00  147.33    1.31    2.16    3.91    0.00    0.00    0.00    0.00    0.03     0.00    0.00    0.00    0.00
  183    0.50    0.00    0.42    3.23    0.00    0.00  145.57    2.26    4.01    3.80    0.00    0.00    0.00    0.00    0.03     0.00    0.00    0.00    0.00
  184   13.50    1.99    0.48    3.19    0.00    0.00  153.65    2.63    3.48    5.70    0.61    0.00    0.00    0.00    0.03     0.00    0.00    0.00    0.00
  185    0.30    0.00    0.41    3.15    0.00    0.00  151.56    2.38    4.00    3.79    0.00    0.00    0.00    0.00    0.05     0.00    0.00    0.00    0.00
  186   41.10   20.84    0.82    3.11    8.53    0.00  157.02    3.10    4.37   23.94    4.18    0.01    0.00    0.00    0.03     0.02    0.00    0.00    0.00
  187    5.00    0.04    0.78    3.08    1.41    0.00  157.88    2.14    3.04    4.86    0.00    0.00    0.00    0.00    0.09     0.00    0.00    0.00    0.00
  188   15.60    3.60    1.00    3.05    7.48    0.00  157.97    2.12    3.35    7.72    0.29    0.00    0.00    0.00    0.04     0.00    0.00    0.00    0.00
  189    0.00    0.00    0.85    3.03    0.09    0.00  155.76    2.12    4.85    4.20    0.00    0.00    0.00    0.00    0.05     0.00    0.00    0.00    0.00
  190    5.20    0.06    0.80    3.00    0.91    0.00  157.27    2.25    3.90    4.01    0.01    0.00    0.00    0.00    0.01     0.00    0.00    0.00    0.00
  191    0.40    0.00    0.68    2.97    0.01    0.00  156.09    1.57    3.48    3.80    0.00    0.00    0.00    0.00    0.01     0.00    0.00    0.00    0.00
  192    0.00    0.00    0.59    2.93    0.00    0.00  155.17    0.92    2.31    3.66    0.00    0.00    0.00    0.00    0.01     0.00    0.00    0.00    0.00
  193    2.10    0.00    0.51    2.90    0.00    0.00  156.26    0.93    1.64    3.55    0.00    0.00    0.00    0.00    0.01     0.00    0.00    0.00    0.00
  194    9.50    0.97    0.63    2.87    3.63    0.00  158.01    1.85    3.19    4.55    0.09    0.00    0.00    0.00    0.01     0.00    0.00    0.00    0.00
  195    0.30    0.00    0.54    2.83    0.05    0.00  156.84    1.42    3.01    3.55    0.00    0.00    0.00    0.00    0.01     0.00    0.00    0.00    0.00
  196    0.70    0.00    0.46    2.80    0.00    0.00  156.12    1.43    2.67    3.40    0.00    0.00    0.00    0.00    0.01     0.00    0.00    0.00    0.00
  197    0.70    0.00    0.40    2.76    0.00    0.00  154.47    2.34    4.29    3.30    0.00    0.00    0.00    0.00    0.01     0.00    0.00    0.00    0.00
  198    9.10    0.80    0.48    2.73    2.23    0.00  157.96    1.59    2.72    4.11    0.14    0.00    0.00    0.00    0.01     0.00    0.00    0.00    0.00
  199    0.50    0.00    0.41    2.69    0.03    0.00  156.66    1.78    3.32    3.28    0.00    0.00    0.00    0.00    0.01     0.00    0.00    0.00    0.00
  200    0.00    0.00    0.35    2.66    0.00    0.00  154.94    1.72    4.03    3.15    0.00    0.00    0.00    0.00    0.01     0.00    0.00    0.00    0.00
  201    0.00    0.00    0.30    2.62    0.00    0.00  153.44    1.51    3.91    3.06    0.00    0.00    0.00    0.00    0.01     0.00    0.00    0.00    0.00
  202    0.00    0.00    0.26    2.58    0.00    0.00  152.01    1.43    3.84    2.97    0.00    0.00    0.00    0.00    0.01     0.00    0.00    0.00    0.00
  203    0.00    0.00    0.23    2.54    0.00    0.00  150.73    1.28    3.61    2.90    0.00    0.00    0.00    0.00    0.01     0.00    0.00    0.00    0.00
  204    0.00    0.00    0.19    2.50    0.00    0.00  149.21    1.52    4.87    2.83    0.00    0.00    0.00    0.00    0.01     0.00    0.00    0.00    0.00
  205    0.00    0.00    0.17    2.46    0.00    0.00  148.20    1.01    3.34    2.76    0.00    0.00    0.00    0.00    0.01     0.00    0.00    0.00    0.00
  206    0.00    0.00    0.14    2.42    0.00    0.00  146.85    1.35    4.78    2.69    0.00    0.00    0.00    0.00    0.01     0.00    0.00    0.00    0.00
  207    0.00    0.00    0.13    2.37    0.00    0.00  145.93    0.93    3.66    2.63    0.00    0.00    0.00    0.00    0.01     0.00    0.00    0.00    0.00
  208    0.00    0.00    0.11    2.33    0.00    0.00  144.71    1.22    4.68    2.57    0.00    0.00    0.00    0.00    0.01     0.00    0.00    0.00    0.00
  209    0.30    0.00    0.09    2.29    0.00    0.00  143.77    1.24    4.25    2.51    0.00    0.00    0.00    0.00    0.01     0.00    0.00    0.00    0.00
  210    0.00    0.00    0.08    2.25    0.00    0.00  142.58    1.18    4.17    2.46    0.00    0.00    0.00    0.00    0.01     0.00    0.00    0.00    0.00
  211    0.00    0.00    0.07    2.20    0.00    0.00  141.19    1.39    5.30    2.40    0.00    0.00    0.00    0.00    0.01     0.00    0.00    0.00    0.00
  212    0.00    0.00    0.06    2.16    0.00    0.00  139.96    1.24    5.15    2.35    0.00    0.00    0.00    0.00    0.01     0.00    0.00    0.00    0.00
    7  104.80   28.29   12.96   84.96   24.37    0.00  139.96   51.14  115.39  130.39    5.31    0.01    0.01    0.01    0.47     0.03    0.00    0.00    0.00
  213    0.00    0.00    0.06    2.12    0.00    0.00  138.79    1.17    5.07    2.30    0.00    0.00    0.00    0.00    0.01     0.00    0.00    0.00    0.00
  214    0.00    0.00    0.05    2.08    0.00    0.00  137.80    0.98    4.16    2.25    0.00    0.00    0.00    0.00    0.01     0.00    0.00    0.00    0.00
  215    0.90    0.00    0.04    2.03    0.00    0.00  138.33    0.38    1.20    2.20    0.00    0.00    0.00    0.00    0.01     0.00    0.00    0.00    0.00
  216    6.20    0.08    0.10    1.99    0.00    0.00  143.42    0.62    1.24    2.29    0.01    0.00    0.00    0.00    0.01     0.00    0.00    0.00    0.00
  217   20.30    5.30    0.30    1.95    1.54    0.00  154.68    0.72    1.26    7.41    1.38    0.00    0.00    0.01    0.01     0.01    0.00    0.00    0.00
  218   12.60    2.13    0.52    1.92    5.48    0.00  156.24    1.61    2.73    4.82    0.01    0.00    0.00    0.02    0.01     0.00    0.00    0.00    0.00
  219    1.90    0.00    0.47    1.89    0.39    0.00  155.64    1.95    3.33    2.61    0.00    0.00    0.00    0.00    0.01     0.00    0.00    0.00    0.00
  220   10.10    1.17    0.61    1.86    4.20    0.00  156.18    2.79    4.78    3.72    0.08    0.00    0.00    0.02    0.01     0.00    0.00    0.00    0.00
  221    0.90    0.00    0.52    1.84    0.05    0.00  155.91    1.11    2.17    2.53    0.00    0.00    0.00    0.00    0.01     0.00    0.00    0.00    0.00
  222    2.50    0.00    0.47    1.81    0.09    0.00  156.30    1.87    3.16    2.40    0.00    0.00    0.00    0.00    0.01     0.00    0.00    0.00    0.00
  223   27.70   11.16    0.85    1.79    9.59    0.00  158.17    1.97    3.44   13.39    2.97    0.02    0.00    0.04    0.01     1.05    0.00    0.47    0.00
  224    0.10    0.00    0.73    1.78    0.13    0.00  156.39    1.75    3.23    3.09    0.00    0.00    0.00    0.00    0.01     0.05    0.00    0.02    0.00
  225    0.00    0.00    0.62    1.76    0.00    0.00  154.38    2.01    4.19    2.57    0.00    0.00    0.00    0.00    0.01     0.01    0.00    0.00    0.00
  226    0.00    0.00    0.53    1.74    0.00    0.00  152.24    2.13    5.07    2.41    0.00    0.00    0.00    0.00    0.01     0.00    0.00    0.00    0.00
  227    0.00    0.00    0.45    1.72    0.00    0.00  151.70    0.54    1.31    2.30    0.00    0.00    0.00    0.00    0.01     0.00    0.00    0.00    0.00
  228    0.00    0.00    0.39    1.70    0.00    0.00  151.14    0.56    1.40    2.21    0.00    0.00    0.00    0.00    0.01     0.00    0.00    0.00    0.00
  229    0.00    0.00    0.33    1.68    0.00    0.00  150.50    0.64    1.72    2.13    0.00    0.00    0.00    0.00    0.01     0.00    0.00    0.00    0.00
  230    0.00    0.00    0.28    1.66    0.00    0.00  149.42    1.08    3.36    2.06    0.00    0.00    0.00    0.00    0.01     0.00    0.00    0.00    0.00
  231    0.00    0.00    0.24    1.64    0.00    0.00  148.49    0.93    3.39    2.00    0.00    0.00    0.00    0.00    0.00     0.00    0.00    0.00    0.00
  232    9.00    0.66    0.29    1.61    0.00    0.00  154.17    2.14    3.30    2.64    0.14    0.03    0.00    0.00    0.00     0.05    0.00    0.02    0.00
  233    0.00    0.00    0.25    1.59    0.00    0.00  152.79    1.38    3.55    1.98    0.00    0.00    0.00    0.00    0.00     0.00    0.00    0.00    0.00
  234    0.20    0.00    0.21    1.56    0.00    0.00  151.60    1.40    3.74    1.89    0.00    0.00    0.00    0.00    0.00     0.00    0.00    0.00    0.00
  235    0.00    0.00    0.18    1.54    0.00    0.00  150.21    1.39    4.03    1.83    0.00    0.00    0.00    0.00    0.00     0.00    0.00    0.00    0.00
  236    2.00    0.00    0.16    1.51    0.00    0.00  150.72    1.44    2.27    1.79    0.00    0.00    0.00    0.00    0.00     0.00    0.00    0.00    0.00
  237    0.20    0.00    0.14    1.49    0.00    0.00  149.57    1.35    3.08    1.74    0.00    0.00    0.00    0.00    0.00     0.00    0.00    0.00    0.00
  238    0.00    0.00    0.12    1.46    0.00    0.00  148.22    1.35    3.82    1.69    0.00    0.00    0.00    0.00    0.00     0.00    0.00    0.00    0.00
  239    0.00    0.00    0.10    1.43    0.00    0.00  146.74    1.48    4.57    1.65    0.00    0.00    0.00    0.00    0.00     0.00    0.00    0.00    0.00
  240    0.00    0.00    0.09    1.41    0.00    0.00  145.35    1.39    4.93    1.61    0.00    0.00    0.00    0.00    0.00     0.00    0.00    0.00    0.00
  241    0.00    0.00    0.08    1.38    0.00    0.00  144.06    1.28    5.04    1.57    0.00    0.00    0.00    0.00    0.00     0.00    0.00    0.00    0.00
  242    0.00    0.00    0.07    1.35    0.00    0.00  142.92    1.15    4.80    1.53    0.00    0.00    0.00    0.00    0.00     0.00    0.00    0.00    0.00
  243    0.00    0.00    0.06    1.33    0.00    0.00  141.90    1.02    4.36    1.50    0.00    0.00    0.00    0.00    0.00     0.00    0.00    0.00    0.00
    8   94.60   20.51    9.30   52.61   21.47    0.00  141.90   41.58  103.69   86.12    4.60    0.05    0.02    0.09    0.11     1.17    0.00    0.52    0.00
  244    0.00    0.00    0.05    1.30    0.00    0.00  140.87    1.03    4.60    1.46    0.00    0.00    0.00    0.00    0.00     0.00    0.00    0.00    0.00
  245    0.00    0.00    0.05    1.28    0.00    0.00  139.88    1.00    4.65    1.43    0.00    0.00    0.00    0.00    0.00     0.00    0.00    0.00    0.00
  246    0.00    0.00    0.04    1.25    0.00    0.00  138.89    0.98    4.72    1.40    0.00    0.00    0.00    0.00    0.00     0.00    0.00    0.00    0.00
  247    0.00    0.00    0.03    1.22    0.00    0.00  138.61    0.28    1.25    1.37    0.00    0.00    0.00    0.00    0.00     0.00    0.00    0.00    0.00
  248    0.00    0.00    0.03    1.20    0.00    0.00  137.97    0.64    3.04    1.34    0.00    0.00    0.00    0.00    0.00     0.00    0.00    0.00    0.00
  249    0.00    0.00    0.03    1.17    0.00    0.00  137.44    0.53    2.57    1.31    0.00    0.00    0.00    0.00    0.00     0.00    0.00    0.00    0.00
  250    0.00    0.00    0.02    1.15    0.00    0.00  136.48    0.96    4.92    1.28    0.00    0.00    0.00    0.00    0.00     0.00    0.00    0.00    0.00
  251    0.00    0.00    0.02    1.12    0.00    0.00  135.60    0.88    4.72    1.25    0.00    0.00    0.00    0.00    0.00     0.00    0.00    0.00    0.00
  252    0.00    0.00    0.02    1.10    0.00    0.00  134.69    0.91    4.95    1.22    0.00    0.00    0.00    0.00    0.00     0.00    0.00    0.00    0.00
  253    0.00    0.00    0.02    1.07    0.00    0.00  133.75    0.94    5.22    1.19    0.00    0.00    0.00    0.00    0.00     0.00    0.00    0.00    0.00
  254    0.10    0.00    0.02    1.05    0.00    0.00  132.96    0.89    4.47    1.17    0.00    0.00    0.00    0.00    0.00     0.00    0.00    0.00    0.00
  255    0.00    0.00    0.01    1.02    0.00    0.00  132.21    0.74    4.27    1.14    0.00    0.00    0.00    0.00    0.00     0.00    0.00    0.00    0.00
  256    0.00    0.00    0.01    1.00    0.00    0.00  131.39    0.82    4.87    1.11    0.00    0.00    0.00    0.00    0.00     0.00    0.00    0.00    0.00
  257    0.00    0.00    0.01    0.98    0.00    0.00  130.58    0.81    4.91    1.09    0.00    0.00    0.00    0.00    0.00     0.00    0.00    0.00    0.00
  258    0.00    0.00    0.01    0.95    0.00    0.00  130.01    0.57    3.47    1.06    0.00    0.00    0.00    0.00    0.00     0.00    0.00    0.00    0.00
  259    0.00    0.00    0.01    0.91    0.00    0.00  129.21    0.79    4.97    1.02    0.00    0.00    0.00    0.00    0.00     0.00    0.00    0.00    0.00
  260    0.00    0.00    0.01    0.86    0.00    0.00  128.42    0.79    5.02    0.97    0.00    0.00    0.00    0.00    0.00     0.00    0.00    0.00    0.00
  261    0.00    0.00    0.01    0.75    0.00    0.00  127.64    0.79    4.98    0.86    0.00    0.00    0.00    0.00    0.00     0.00    0.00    0.00    0.00
  262    0.00    0.00    0.01    0.66    0.00    0.00  126.90    0.74    4.80    0.77    0.00    0.00    0.00    0.00    0.00     0.00    0.00    0.00    0.00
  263    0.00    0.00    0.01    0.58    0.00    0.00  126.04    0.86    5.68    0.69    0.00    0.00    0.00    0.00    0.00     0.00    0.00    0.00    0.00
  264    0.00    0.00    0.01    0.53    0.00    0.00  125.27    0.77    5.29    0.64    0.00    0.00    0.00    0.00    0.00     0.00    0.00    0.00    0.00
  265    0.00    0.00    0.01    0.48    0.00    0.00  124.52    0.75    5.25    0.59    0.00    0.00    0.00    0.00    0.00     0.00    0.00    0.00    0.00
  266    0.00    0.00    0.01    0.46    0.00    0.00  123.79    0.72    5.16    0.56    0.00    0.00    0.00    0.00    0.00     0.00    0.00    0.00    0.00
  267    0.00    0.00    0.01    0.44    0.00    0.00  123.01    0.78    5.64    0.54    0.00    0.00    0.00    0.00    0.00     0.00    0.00    0.00    0.00
  268    0.00    0.00    0.01    0.43    0.00    0.00  122.30    0.71    5.10    0.53    0.00    0.00    0.00    0.00    0.00     0.00    0.00    0.00    0.00
  269    0.00    0.00    0.01    0.42    0.00    0.00  121.57    0.72    5.06    0.52    0.00    0.00    0.00    0.00    0.00     0.00    0.00    0.00    0.00
  270    0.00    0.00    0.01    0.41    0.00    0.00  120.89    0.68    4.82    0.51    0.00    0.00    0.00    0.00    0.00     0.00    0.00    0.00    0.00
  271    0.00    0.00    0.01    0.39    0.00    0.00  120.17    0.72    4.93    0.48    0.00    0.00    0.00    0.00    0.00     0.00    0.00    0.00    0.00
  272    0.00    0.00    0.01    0.29    0.00    0.00  119.66    0.50    3.22    0.39    0.00    0.00    0.00    0.00    0.00     0.00    0.00    0.00    0.00
  273    0.00    0.00    0.01    0.25    0.00    0.00  119.12    0.54    5.07    0.35    0.00    0.00    0.00    0.00    0.00     0.00    0.00    0.00    0.00
    9    0.10    0.00    0.50   24.74    0.00    0.00  119.12   22.88  137.63   28.21    0.00    0.00    0.00    0.00    0.00     0.00    0.00    0.00    0.00
  274    0.00    0.00    0.01    0.22    0.00    0.00  118.52    0.59    5.38    0.32    0.00    0.00    0.00    0.00    0.00     0.00    0.00    0.00    0.00
  275    0.00    0.00    0.01    0.19    0.00    0.00  117.81    0.71    6.54    0.28    0.00    0.00    0.00    0.00    0.00     0.00    0.00    0.00    0.00
  276    0.00    0.00    0.01    0.17    0.00    0.00  117.28    0.53    4.90    0.26    0.00    0.00    0.00    0.00    0.00     0.00    0.00    0.00    0.00
  277    0.00    0.00    0.00    0.16    0.00    0.00  116.71    0.58    5.45    0.25    0.00    0.00    0.00    0.00    0.00     0.00    0.00    0.00    0.00
  278    0.00    0.00    0.00    0.17    0.00    0.00  116.27    0.44    4.19    0.25    0.00    0.00    0.00    0.00    0.00     0.00    0.00    0.00    0.00
  279    0.00    0.00    0.00    0.17    0.00    0.00  115.96    0.31    2.95    0.26    0.00    0.00    0.00    0.00    0.00     0.00    0.00    0.00    0.00
  280    0.00    0.00    0.00    0.17    0.00    0.00  115.57    0.39    3.79    0.26    0.00    0.00    0.00    0.00    0.00     0.00    0.00    0.00    0.00
  281    0.00    0.00    0.00    0.15    0.00    0.00  115.01    0.56    5.47    0.24    0.00    0.00    0.00    0.00    0.00     0.00    0.00    0.00    0.00
  282    0.00    0.00    0.00    0.13    0.00    0.00  114.51    0.50    4.99    0.21    0.00    0.00    0.00    0.00    0.00     0.00    0.00    0.00    0.00
  283    0.00    0.00    0.00    0.10    0.00    0.00  113.94    0.57    5.68    0.19    0.00    0.00    0.00    0.00    0.00     0.00    0.00    0.00    0.00
  284    0.00    0.00    0.00    0.11    0.00    0.00  113.67    0.27    2.77    0.19    0.00    0.00    0.00    0.00    0.00     0.00    0.00    0.00    0.00
  285    0.00    0.00    0.00    0.11    0.00    0.00  113.19    0.48    4.87    0.20    0.00    0.00    0.00    0.00    0.00     0.00    0.00    0.00    0.00
  286    0.00    0.00    0.00    0.12    0.00    0.00  112.69    0.50    5.17    0.20    0.00    0.00    0.00    0.00    0.00     0.00    0.00    0.00    0.00
  287    0.00    0.00    0.00    0.11    0.00    0.00  112.26    0.43    4.50    0.20    0.00    0.00    0.00    0.00    0.00     0.00    0.00    0.00    0.00
  288    0.00    0.00    0.00    0.12    0.00    0.00  111.95    0.31    3.21    0.20    0.00    0.00    0.00    0.00    0.00     0.00    0.00    0.00    0.00
  289    0.00    0.00    0.00    0.12    0.00    0.00  111.74    0.21    2.21    0.20    0.00    0.00    0.00    0.00    0.00     0.00    0.00    0.00    0.00
  290    0.00    0.00    0.00    0.09    0.00    0.00  111.24    0.50    5.34    0.17    0.00    0.00    0.00    0.00    0.00     0.00    0.00    0.00    0.00
  291    0.00    0.00    0.00    0.04    0.00    0.00  110.62    0.62    6.64    0.11    0.00    0.00    0.00    0.00    0.00     0.00    0.00    0.00    0.00
  292    0.00    0.00    0.00    0.04    0.00    0.00  110.13    0.49    5.30    0.12    0.00    0.00    0.00    0.00    0.00     0.00    0.00    0.00    0.00
  293    0.00    0.00    0.00    0.05    0.00    0.00  109.83    0.30    3.32    0.12    0.00    0.00    0.00    0.00    0.00     0.00    0.00    0.00    0.00
  294    0.00    0.00    0.00    0.05    0.00    0.00  109.53    0.30    3.33    0.13    0.00    0.00    0.00    0.00    0.00     0.00    0.00    0.00    0.00
  295    0.00    0.00    0.00    0.06    0.00    0.00  109.15    0.37    4.11    0.13    0.00    0.00    0.00    0.00    0.00     0.00    0.00    0.00    0.00
  296   14.60    1.05    0.14    0.06    0.00    0.00  119.88    1.89    4.55    1.26    0.09    0.12    0.00    0.00    0.00     0.02    0.00    0.01    0.00
  297    2.20    0.00    0.13    0.06    0.00    0.00  119.99    2.02    5.41    0.31    0.00    0.01    0.00    0.00    0.00     0.00    0.00    0.00    0.00
  298    0.00    0.00    0.11    0.06    0.00    0.00  118.88    1.10    6.33    0.24    0.00    0.00    0.00    0.00    0.00     0.00    0.00    0.00    0.00
  299    0.10    0.00    0.09    0.04    0.00    0.00  118.17    0.82    5.23    0.21    0.00    0.00    0.00    0.00    0.00     0.00    0.00    0.00    0.00
  300    0.10    0.00    0.08    0.02    0.00    0.00  117.41    0.85    5.82    0.17    0.00    0.00    0.00    0.00    0.00     0.00    0.00    0.00    0.00
  301    0.00    0.00    0.07    0.02    0.00    0.00  116.78    0.64    4.91    0.16    0.00    0.00    0.00    0.00    0.00     0.00    0.00    0.00    0.00
  302    0.00    0.00    0.06    0.01    0.00    0.00  116.01    0.77    6.18    0.14    0.00    0.00    0.00    0.00    0.00     0.00    0.00    0.00    0.00
  303    0.00    0.00    0.05    0.01    0.00    0.00  115.30    0.71    5.86    0.13    0.00    0.00    0.00    0.00    0.00     0.00    0.00    0.00    0.00
  304    0.00    0.00    0.04    0.01    0.00    0.00  114.64    0.66    5.54    0.12    0.00    0.00    0.00    0.00    0.00     0.00    0.00    0.00    0.00
   10   17.00    1.05    0.87    2.93    0.00    0.00  114.64   19.42  149.92    7.24    0.09    0.13    0.02    0.00    0.00     0.03    0.00    0.01    0.00
  305    0.40    0.00    0.04    0.01    0.00    0.00  113.99    1.06    6.31    0.11    0.00    0.00    0.00    0.00    0.00     0.00    0.00    0.00    0.00
  306    0.00    0.00    0.03    0.00    0.00    0.00  113.13    0.85    6.92    0.10    0.00    0.00    0.00    0.00    0.00     0.00    0.00    0.00    0.00
  307    0.00    0.00    0.03    0.00    0.00    0.00  112.46    0.67    5.90    0.10    0.00    0.00    0.00    0.00    0.00     0.00    0.00    0.00    0.00
  308    0.00    0.00    0.02    0.00    0.00    0.00  111.82    0.64    5.82    0.09    0.00    0.00    0.00    0.00    0.00     0.00    0.00    0.00    0.00
  309    0.00    0.00    0.02    0.01    0.00    0.00  111.17    0.64    5.94    0.09    0.00    0.00    0.00    0.00    0.00     0.00    0.00    0.00    0.00
  310    0.00    0.00    0.02    0.00    0.00    0.00  110.59    0.58    5.45    0.09    0.00    0.00    0.00    0.00    0.00     0.00    0.00    0.00    0.00
  311    0.00    0.00    0.02    0.01    0.00    0.00  110.17    0.42    4.00    0.08    0.00    0.00    0.00    0.00    0.00     0.00    0.00    0.00    0.00
  312    0.00    0.00    0.01    0.01    0.00    0.00  109.84    0.33    3.21    0.08    0.00    0.00    0.00    0.00    0.00     0.00    0.00    0.00    0.00
  313   16.90    1.68    0.17    0.01    0.00    0.00  122.19    1.80    3.10    1.83    0.28    0.05    0.00    0.00    0.00     0.06    0.00    0.03    0.00
  314    2.90    0.00    0.16    0.01    0.00    0.00  123.21    1.76    2.95    0.31    0.00    0.00    0.00    0.00    0.00     0.00    0.00    0.00    0.00
  315    0.00    0.00    0.14    0.01    0.00    0.00  121.79    1.41    6.33    0.22    0.00    0.00    0.00    0.00    0.00     0.00    0.00    0.00    0.00
  316    0.00    0.00    0.12    0.00    0.00    0.00  120.66    1.13    6.30    0.18    0.00    0.00    0.00    0.00    0.00     0.00    0.00    0.00    0.00
  317    4.40    0.00    0.13    0.00    0.00    0.00  122.48    2.36    5.90    0.19    0.00    0.00    0.00    0.00    0.00     0.00    0.00    0.00    0.00
  318    0.00    0.00    0.11    0.00    0.00    0.00  121.21    1.28    5.81    0.17    0.00    0.00    0.00    0.00    0.00     0.00    0.00    0.00    0.00
  319    0.00    0.00    0.10    0.00    0.00    0.00  120.34    0.87    4.81    0.16    0.00    0.00    0.00    0.00    0.00     0.00    0.00    0.00    0.00
  320    0.00    0.00    0.08    0.00    0.00    0.00  119.07    1.27    7.59    0.14    0.00    0.00    0.00    0.00    0.00     0.00    0.00    0.00    0.00
  321    0.00    0.00    0.07    0.00    0.00    0.00  118.11    0.96    6.08    0.13    0.00    0.00    0.00    0.00    0.00     0.00    0.00    0.00    0.00
  322   23.30    4.62    0.26    0.00    0.00    0.00  132.94    2.51    3.87    4.69    1.26    0.03    0.00    0.00    0.00     0.21    0.00    0.09    0.00
  323    0.30    0.00    0.22    0.00    0.00    0.00  131.76    1.47    3.75    0.48    0.00    0.00    0.00    0.00    0.00     0.01    0.00    0.00    0.00
  324    0.00    0.00    0.19    0.00    0.00    0.00  130.10    1.67    5.05    0.27    0.00    0.00    0.00    0.00    0.00     0.00    0.00    0.00    0.00
  325    0.80    0.00    0.16    0.00    0.00    0.00  129.14    1.76    4.36    0.22    0.00    0.00    0.00    0.00    0.00     0.00    0.00    0.00    0.00
  326    0.80    0.00    0.14    0.00    0.00    0.00  127.73    2.20    5.23    0.19    0.00    0.00    0.00    0.00    0.00     0.00    0.00    0.00    0.00
  327    7.50    0.09    0.18    0.00    0.00    0.00  131.99    2.69    4.46    0.32    0.01    0.00    0.00    0.00    0.00     0.00    0.00    0.00    0.00
  328    8.60    0.27    0.24    0.00    0.00    0.00  136.54    3.23    4.75    0.55    0.06    0.00    0.00    0.00    0.00     0.01    0.00    0.00    0.00
  329    0.00    0.00    0.20    0.00    0.00    0.00  134.68    1.86    4.29    0.27    0.00    0.00    0.00    0.00    0.00     0.00    0.00    0.00    0.00
  330   27.50    8.51    0.47    0.00    0.00    0.00  148.69    2.92    3.41    8.62    2.89    0.02    0.01    0.00    0.00     0.42    0.01    0.18    0.00
  331    0.30    0.00    0.40    0.00    0.00    0.00  147.66    1.34    2.45    0.81    0.00    0.00    0.01    0.00    0.00     0.02    0.00    0.01    0.00
  332    2.40    0.00    0.36    0.00    0.00    0.00  147.33    2.64    3.06    0.46    0.00    0.00    0.00    0.00    0.00     0.00    0.00    0.00    0.00
  333    0.00    0.00    0.30    0.00    0.00    0.00  145.51    1.82    3.73    0.37    0.00    0.00    0.00    0.00    0.00     0.00    0.00    0.00    0.00
  334    0.00    0.00    0.26    0.00    0.00    0.00  143.64    1.87    4.49    0.31    0.00    0.00    0.00    0.00    0.00     0.00    0.00    0.00    0.00
   11   96.10   15.17    4.64    0.06    0.00    0.00  143.64   46.02  145.31   21.63    4.51    0.11    0.05    0.00    0.00     0.73    0.01    0.33    0.00
  335    0.00    0.00    0.22    0.00    0.00    0.00  142.32    1.32    3.52    0.27    0.00    0.00    0.00    0.00    0.00     0.00    0.00    0.00    0.00
  336    0.00    0.00    0.19    0.00    0.00    0.00  140.75    1.57    4.49    0.24    0.00    0.00    0.00    0.00    0.00     0.00    0.00    0.00    0.00
  337    0.00    0.00    0.16    0.00    0.00    0.00  139.50    1.24    3.80    0.21    0.00    0.00    0.00    0.00    0.00     0.00    0.00    0.00    0.00
  338    2.90    0.00    0.15    0.00    0.00    0.00  139.94    2.36    3.28    0.20    0.00    0.00    0.00    0.00    0.00     0.00    0.00    0.00    0.00
  339    3.10    0.00    0.15    0.00    0.00    0.00  141.23    1.67    2.15    0.20    0.00    0.00    0.00    0.00    0.00     0.00    0.00    0.00    0.00
  340    0.00    0.00    0.13    0.00    0.00    0.00  139.87    1.35    3.13    0.18    0.00    0.00    0.00    0.00    0.00     0.00    0.00    0.00    0.00
  341    0.00    0.00    0.11    0.00    0.00    0.00  138.22    1.65    4.37    0.16    0.00    0.00    0.00    0.00    0.00     0.00    0.00    0.00    0.00
  342    0.00    0.00    0.09    0.00    0.00    0.00  137.64    0.59    1.74    0.14    0.00    0.00    0.00    0.00    0.00     0.00    0.00    0.00    0.00
  343   11.60    1.03    0.18    0.00    0.00    0.00  143.85    3.65    5.41    1.21    0.10    0.01    0.00    0.00    0.00     0.02    0.00    0.01    0.00
  344    0.00    0.00    0.16    0.00    0.00    0.00  141.41    2.44    5.54    0.25    0.00    0.00    0.00    0.00    0.00     0.00    0.00    0.00    0.00
  345    6.40    0.07    0.19    0.00    0.00    0.00  143.56    3.81    5.68    0.31    0.01    0.00    0.00    0.00    0.00     0.00    0.00    0.00    0.00
  346    0.00    0.00    0.16    0.00    0.00    0.00  140.96    2.60    5.91    0.21    0.00    0.00    0.00    0.00    0.00     0.00    0.00    0.00    0.00
  347    0.00    0.00    0.14    0.00    0.00    0.00  138.78    2.17    5.91    0.18    0.00    0.00    0.00    0.00    0.00     0.00    0.00    0.00    0.00
  348    0.00    0.00    0.12    0.00    0.00    0.00  137.40    1.38    4.18    0.16    0.00    0.00    0.00    0.00    0.00     0.00    0.00    0.00    0.00
  349    0.00    0.00    0.10    0.00    0.00    0.00  135.39    2.02    6.50    0.14    0.00    0.00    0.00    0.00    0.00     0.00    0.00    0.00    0.00
  350   18.40    3.53    0.25    0.00    0.01    0.00  145.73    3.42    4.35    3.64    1.11    0.03    0.00    0.00    0.00     0.14    0.00    0.06    0.00
  351    1.30    0.00    0.21    0.00    0.00    0.00  143.47    3.56    5.09    0.41    0.00    0.00    0.00    0.00    0.00     0.01    0.00    0.00    0.00
  352    0.00    0.00    0.18    0.00    0.00    0.00  141.85    1.62    3.48    0.24    0.00    0.00    0.00    0.00    0.00     0.00    0.00    0.00    0.00
  353    0.00    0.00    0.15    0.00    0.00    0.00  139.64    2.21    5.59    0.20    0.00    0.00    0.00    0.00    0.00     0.00    0.00    0.00    0.00
  354    0.00    0.00    0.13    0.00    0.00    0.00  137.79    1.85    5.29    0.17    0.00    0.00    0.00    0.00    0.00     0.00    0.00    0.00    0.00
  355    0.00    0.00    0.11    0.00    0.00    0.00  136.61    1.18    3.65    0.15    0.00    0.00    0.00    0.00    0.00     0.00    0.00    0.00    0.00
  356    0.00    0.00    0.10    0.00    0.00    0.00  135.08    1.53    5.00    0.14    0.00    0.00    0.00    0.00    0.00     0.00    0.00    0.00    0.00
  357    0.00    0.00    0.08    0.00    0.00    0.00  133.49    1.58    5.51    0.12    0.00    0.00    0.00    0.00    0.00     0.00    0.00    0.00    0.00
  358    3.00    0.00    0.09    0.00    0.00    0.00  133.90    2.48    4.20    0.13    0.00    0.00    0.00    0.00    0.00     0.00    0.00    0.00    0.00
  359    0.10    0.00    0.07    0.00    0.00    0.00  132.26    1.75    5.17    0.11    0.00    0.00    0.00    0.00    0.00     0.00    0.00    0.00    0.00
  360    0.00    0.00    0.06    0.00    0.00    0.00  130.65    1.60    5.96    0.10    0.00    0.00    0.00    0.00    0.00     0.00    0.00    0.00    0.00
  361    0.00    0.00    0.05    0.00    0.00    0.00  129.21    1.44    5.87    0.09    0.00    0.00    0.00    0.00    0.00     0.00    0.00    0.00    0.00
  362    0.00    0.00    0.05    0.00    0.00    0.00  128.17    1.05    4.54    0.09    0.00    0.00    0.00    0.00    0.00     0.00    0.00    0.00    0.00
  363    0.00    0.00    0.04    0.00    0.00    0.00  127.34    0.83    3.74    0.08    0.00    0.00    0.00    0.00    0.00     0.00    0.00    0.00    0.00
  364    7.10    0.04    0.10    0.00    0.00    0.00  132.11    1.86    2.58    0.17    0.01    0.00    0.00    0.00    0.00     0.00    0.00    0.00    0.00
  365    0.00    0.00    0.08    0.00    0.00    0.00  131.00    1.12    3.32    0.12    0.00    0.00    0.00    0.00    0.00     0.00    0.00    0.00    0.00
   12   53.90    4.68    4.00    0.00    0.01    0.00  131.00   58.90  138.95   10.03    1.23    0.04    0.03    0.00    0.00     0.17    0.00    0.07    0.00

 1991 2650.20 1020.77  230.19  535.31  596.57    0.00  131.00  785.36 1463.40 1815.35  177.67    8.92    4.02   42.13  119.37    21.44    0.06    4.68    0.00
1
    SWAT Sep 7    VER 2018/Rev 670                                                  

    General Input/Output section (file.cio):                                        
    12/22/2020 12:00:00 AM ARCGIS-SWAT interface AV                                 
                                                                                    
Annual Summary for Watershed in year    3 of simulation

UNIT                                    PERCO    TILE                           WATER     SED     NO3     NO3     NO3     NO3        N       P       P
TIME     PREC    SURQ    LATQ     GWQ    LATE       Q     SW       ET     PET   YIELD   YIELD    SURQ    LATQ    PERC    CROP  ORGANIC SOLUBLE ORGANIC TILENO3
         (mm)    (mm)    (mm)    (mm)    (mm)    (mm)    (mm)    (mm)    (mm)    (mm)   (t/ha)  ------------------(kg nutrient/ha)-------------------- (kg/ha)
    1    0.00    0.00    0.07    0.00    0.00    0.00  129.95    1.04    3.50    0.11    0.00    0.00    0.00    0.00    0.00     0.00    0.00    0.00    0.00
    2    0.00    0.00    0.06    0.00    0.00    0.00  128.67    1.28    5.03    0.10    0.00    0.00    0.00    0.00    0.00     0.00    0.00    0.00    0.00
    3    3.20    0.00    0.07    0.00    0.00    0.00  129.44    2.30    4.03    0.11    0.00    0.00    0.00    0.00    0.00     0.00    0.00    0.00    0.00
    4   23.90    5.84    0.26    0.00    0.03    0.00  143.10    2.99    3.45    5.84    1.74    0.02    0.00    0.00    0.00     0.69    0.00    0.14    0.00
    5    0.00    0.00    0.22    0.00    0.00    0.00  140.16    2.94    5.86    0.51    0.00    0.00    0.00    0.00    0.00     0.03    0.00    0.01    0.00
    6    0.00    0.00    0.19    0.00    0.00    0.00  137.41    2.75    6.66    0.26    0.00    0.00    0.00    0.00    0.00     0.00    0.00    0.00    0.00
    7    0.00    0.00    0.16    0.00    0.00    0.00  136.05    1.36    3.76    0.20    0.00    0.00    0.00    0.00    0.00     0.00    0.00    0.00    0.00
    8   41.40   18.47    0.53    0.00    1.87    0.00  151.78    2.66    2.88   18.16    5.77    0.05    0.01    0.05    0.00     2.14    0.01    0.42    0.00
    9    4.20    0.00    0.50    0.00    0.28    0.00  151.92    3.43    4.09    1.27    0.00    0.00    0.01    0.01    0.00     0.10    0.00    0.02    0.00
   10    0.00    0.00    0.43    0.00    0.00    0.00  149.82    2.11    3.90    0.57    0.00    0.00    0.01    0.00    0.00     0.02    0.00    0.00    0.00
   11   11.20    1.26    0.52    0.00    1.66    0.00  154.23    2.80    3.03    1.77    0.22    0.01    0.01    0.10    0.00     0.09    0.00    0.02    0.00
   12   12.40    1.88    0.66    0.00    3.30    0.00  156.18    3.80    4.74    2.54    0.24    0.01    0.01    0.22    0.00     0.16    0.00    0.03    0.00
   13    3.20    0.00    0.58    0.01    0.01    0.00  155.96    3.26    3.83    0.71    0.00    0.00    0.01    0.00    0.00     0.01    0.00    0.00    0.00
   14    0.00    0.00    0.49    0.01    0.00    0.00  153.93    2.03    3.77    0.55    0.00    0.00    0.01    0.00    0.00     0.00    0.00    0.00    0.00
   15    0.30    0.00    0.42    0.01    0.00    0.00  152.83    1.40    2.75    0.47    0.00    0.00    0.01    0.00    0.00     0.00    0.00    0.00    0.00
   16    0.00    0.00    0.36    0.01    0.00    0.00  150.84    1.98    4.37    0.41    0.00    0.00    0.01    0.00    0.00     0.00    0.00    0.00    0.00
   17    0.10    0.00    0.31    0.01    0.00    0.00  148.92    2.02    4.93    0.35    0.00    0.00    0.01    0.00    0.00     0.00    0.00    0.00    0.00
   18    3.20    0.00    0.28    0.02    0.00    0.00  148.59    3.40    5.51    0.33    0.00    0.00    0.01    0.00    0.00     0.00    0.00    0.00    0.00
   19    0.20    0.00    0.24    0.02    0.00    0.00  146.78    2.01    4.58    0.29    0.00    0.00    0.00    0.00    0.00     0.00    0.00    0.00    0.00
   20    0.00    0.00    0.20    0.02    0.00    0.00  144.54    2.24    6.48    0.26    0.00    0.00    0.00    0.00    0.00     0.00    0.00    0.00    0.00
   21   26.70    9.12    0.40    0.02    1.23    0.00  155.93    3.41    3.99    9.13    2.56    0.03    0.00    0.05    0.00     0.84    0.00    0.16    0.00
   22   23.30    8.08    0.74    0.03    8.30    0.00  155.86    4.26    5.56    8.87    0.74    0.02    0.01    0.69    0.00     0.93    0.00    0.18    0.00
   23    0.70    0.00    0.63    0.04    0.03    0.00  152.13    4.39    7.61    1.09    0.00    0.00    0.01    0.00    0.00     0.05    0.00    0.01    0.00
   24    2.00    0.00    0.54    0.05    0.00    0.00  150.46    3.62    5.66    0.69    0.00    0.00    0.01    0.00    0.00     0.01    0.00    0.00    0.00
   25    3.50    0.00    0.49    0.07    0.00    0.00  149.77    4.01    6.60    0.60    0.00    0.00    0.01    0.00    0.00     0.00    0.00    0.00    0.00
   26    1.30    0.00    0.42    0.08    0.00    0.00  147.86    3.21    5.22    0.53    0.00    0.00    0.01    0.00    0.00     0.00    0.00    0.00    0.00
   27    1.60    0.00    0.36    0.09    0.00    0.00  148.04    1.40    1.72    0.48    0.00    0.00    0.01    0.00    0.00     0.00    0.00    0.00    0.00
   28   24.00    7.74    0.56    0.10    2.50    0.00  159.41    0.64    0.68    8.05    1.59    0.01    0.01    0.17    0.00     0.50    0.00    0.10    0.00
   29    1.10    0.00    0.50    0.11    0.38    0.00  157.35    2.66    2.84    0.96    0.00    0.00    0.01    0.03    0.00     0.02    0.00    0.00    0.00
   30    8.30    0.62    0.60    0.12    3.77    0.00  156.42    3.63    4.36    1.38    0.04    0.00    0.01    0.35    0.00     0.02    0.00    0.00    0.00
   31   19.10    5.46    0.86    0.14    7.54    0.00  156.55    3.54    4.20    6.27    0.74    0.01    0.02    0.70    0.00     0.26    0.00    0.05    0.00
    1  214.90   58.47   12.67    0.95   30.89    0.00  156.55   82.62  135.58   72.84   13.66    0.16    0.21    2.37    0.00     5.88    0.02    1.14    0.00
   32    0.20    0.00    0.74    0.16    0.04    0.00  154.23    2.48    4.32    1.16    0.00    0.00    0.01    0.00    0.00     0.01    0.00    0.00    0.00
   33    0.00    0.00    0.63    0.17    0.00    0.00  151.27    2.96    6.38    0.87    0.00    0.00    0.01    0.00    0.00     0.00    0.00    0.00    0.00
   34    0.00    0.00    0.54    0.19    0.00    0.00  148.44    2.84    7.11    0.76    0.00    0.00    0.01    0.00    0.00     0.00    0.00    0.00    0.00
   35    0.00    0.00    0.46    0.20    0.00    0.00  146.34    2.10    5.95    0.69    0.00    0.00    0.01    0.00    0.00     0.00    0.00    0.00    0.00
   36    0.00    0.00    0.39    0.21    0.00    0.00  144.64    1.70    5.24    0.63    0.00    0.00    0.01    0.00    0.00     0.00    0.00    0.00    0.00
   37    7.60    0.27    0.40    0.22    0.00    0.00  148.12    3.41    5.47    0.90    0.04    0.00    0.01    0.00    0.00     0.01    0.00    0.00    0.00
   38    3.80    0.00    0.37    0.23    0.00    0.00  149.58    2.14    2.40    0.64    0.00    0.00    0.01    0.00    0.18     0.00    0.00    0.00    0.00
   39   30.00   12.01    0.66    0.24    5.10    0.00  155.90    4.18    5.06   12.37    4.07    0.01    0.01    0.42    0.25     1.07    0.00    0.20    0.00
   40    0.10    0.00    0.57    0.25    0.01    0.00  152.97    3.02    5.29    1.34    0.00    0.00    0.01    0.00    0.53     0.05    0.00    0.01    0.00
   41    2.90    0.00    0.50    0.26    0.00    0.00  151.58    4.18    5.95    0.86    0.00    0.00    0.01    0.00    0.51     0.01    0.00    0.00    0.00
   42    0.00    0.00    0.43    0.28    0.00    0.00  148.85    2.73    5.68    0.75    0.00    0.00    0.01    0.00    0.61     0.00    0.00    0.00    0.00
   43   17.30    3.90    0.53    0.29    1.06    0.00  156.16    3.86    4.41    4.56    1.37    0.00    0.01    0.06    0.66     0.32    0.00    0.06    0.00
   44   25.40    9.54    0.87    0.32    9.02    0.00  155.72    4.40    5.17   10.48    1.67    0.00    0.01    0.78    0.59     0.70    0.00    0.13    0.00
   45    5.60    0.09    0.81    0.35    0.76    0.00  156.90    3.11    3.11    1.69    0.00    0.00    0.01    0.07    0.47     0.04    0.00    0.01    0.00
   46    1.40    0.00    0.69    0.37    0.00    0.00  155.46    2.84    2.84    1.16    0.00    0.00    0.01    0.00    0.48     0.01    0.00    0.00    0.00
   47    0.00    0.00    0.59    0.39    0.00    0.00  153.07    2.39    3.91    1.03    0.00    0.00    0.01    0.00    0.51     0.00    0.00    0.00    0.00
   48   18.80    5.02    0.78    0.42    4.88    0.00  158.85    1.22    1.22    6.01    0.92    0.00    0.01    0.37    0.23     0.23    0.00    0.04    0.00
   49   25.10    9.63    1.14    0.46   10.92    0.00  157.77    2.37    2.37   11.01    2.99    0.00    0.01    0.84    0.41     0.78    0.00    0.15    0.00
   50    1.20    0.00    0.97    0.50    0.13    0.00  155.96    2.87    2.87    1.93    0.00    0.00    0.01    0.01    0.34     0.04    0.00    0.01    0.00
   51   12.30    1.93    1.06    0.54    4.68    0.00  156.13    3.93    4.15    3.53    0.17    0.00    0.01    0.34    0.15     0.05    0.00    0.01    0.00
   52    9.60    0.95    1.09    0.58    3.50    0.00  159.20    0.85    0.85    2.70    0.11    0.00    0.01    0.25    0.07     0.06    0.00    0.01    0.00
   53    4.20    0.01    1.04    0.62    2.58    0.00  159.49    0.55    0.55    1.76    0.00    0.00    0.01    0.19    0.06     0.00    0.00    0.00    0.00
   54    9.60    1.04    1.15    0.66    6.15    0.00  159.61    0.47    0.47    2.85    0.37    0.00    0.01    0.42    0.05     0.07    0.00    0.01    0.00
   55   18.80    5.54    1.40    0.72    9.84    0.00  158.54    1.58    1.58    7.47    0.77    0.00    0.01    0.57    0.46     0.24    0.00    0.04    0.00
   56   49.30   29.05    1.82    0.79   14.32    0.00  157.63    2.55    2.55   30.61    4.60    0.01    0.01    0.62    0.79     1.13    0.00    0.21    0.00
   57   44.20   24.50    2.13    0.87   13.18    0.00  159.85    0.32    0.32   27.58    4.12    0.01    0.01    0.50    0.15     1.38    0.00    0.26    0.00
   58    2.10    0.00    1.88    0.95    1.52    0.00  157.54    2.48    2.48    3.99    0.00    0.00    0.01    0.05    0.91     0.07    0.00    0.01    0.00
   59    3.90    0.00    1.66    1.02    1.02    0.00  155.85    4.17    4.29    2.89    0.00    0.00    0.01    0.03    0.96     0.01    0.00    0.00    0.00
   60    3.80    0.00    1.44    1.08    0.00    0.00  154.84    4.62    4.92    2.60    0.00    0.00    0.01    0.00    1.32     0.00    0.00    0.00    0.00
    2  297.20  103.48   26.75   13.33   88.71    0.00  154.84   76.31  106.93  144.79   21.20    0.06    0.26    5.52   10.71     6.30    0.01    1.18    0.00
   61    2.90    0.00    1.25    1.14    0.00    0.00  153.41    4.22    4.58    2.43    0.00    0.00    0.01    0.00    0.97     0.00    0.00    0.00    0.00
   62    0.00    0.00    1.07    1.19    0.00    0.00  150.18    3.22    5.22    2.30    0.00    0.00    0.01    0.00    0.38     0.00    0.00    0.00    0.00
   63    2.10    0.00    0.92    1.23    0.00    0.00  147.74    4.50    5.71    2.19    0.00    0.00    0.01    0.00    0.25     0.00    0.00    0.00    0.00
   64    2.00    0.00    0.79    1.27    0.00    0.00  145.79    3.90    4.63    2.10    0.00    0.00    0.02    0.00    0.60     0.00    0.00    0.00    0.00
   65   38.80   18.06    1.02    1.31    4.12    0.00  155.01    5.05    5.39   19.58    7.39    5.98    0.05    0.13    2.93     0.95    0.00    0.17    0.00
   66   17.30    4.32    1.16    1.36    5.88    0.00  155.50    4.58    4.66    7.39    0.00    2.20    0.09    0.68    2.97     0.22    0.00    0.04    0.00
   67   23.80    8.38    1.38    1.41    8.15    0.00  155.46    4.65    4.76   11.09    1.15    1.93    0.14    1.67    3.33     0.18    0.00    0.03    0.00
   68    6.80    0.26    1.27    1.45    1.34    0.00  158.87    1.16    1.16    3.41    0.00    0.33    0.14    0.32    1.19     0.02    0.00    0.00    0.00
   69   75.60   52.91    1.80    1.52   16.42    0.00  159.17    1.04    1.04   53.98   10.84    0.23    0.22    5.46    1.16     1.32    0.00    0.24    0.00
   70   35.60   17.65    2.10    1.59   13.08    0.00  159.25    0.92    0.92   22.58    0.00    0.11    0.25    5.22    1.10     0.45    0.00    0.08    0.00
   71   27.10   11.11    2.29    1.67   11.65    0.00  156.63    3.53    3.53   15.58    2.69    0.04    0.27    4.97    2.12     0.25    0.00    0.05    0.00
   72   10.20    1.16    2.16    1.75    4.23    0.00  156.02    4.04    4.04    5.66    0.00    0.01    0.25    1.85    2.91     0.04    0.00    0.01    0.00
   73    0.80    0.00    1.84    1.83    0.04    0.00  154.29    2.49    3.02    3.86    0.00    0.00    0.21    0.02    3.06     0.00    0.00    0.00    0.00
   74   17.00    4.11    1.85    1.90    5.20    0.00  157.03    3.04    3.04    7.73    0.94    0.00    0.20    2.10    2.44     0.08    0.00    0.01    0.00
   75    4.60    0.02    1.64    1.96    1.13    0.00  155.55    4.47    4.47    3.85    0.00    0.00    0.17    0.52    2.26     0.00    0.00    0.00    0.00
   76    3.70    0.00    1.43    2.02    0.01    0.00  155.01    4.05    4.05    3.53    0.00    0.00    0.15    0.01    3.54     0.00    0.00    0.00    0.00
   77    4.10    0.00    1.25    2.07    0.00    0.00  153.66    5.24    5.33    3.38    0.00    0.00    0.12    0.00    3.43     0.00    0.00    0.00    0.00
   78   10.40    1.14    1.21    2.11    1.93    0.00  157.02    3.02    3.02    4.45    0.23    0.00    0.11    0.76    4.32     0.02    0.00    0.00    0.00
   79   56.90   35.43    1.66    2.17   13.99    0.00  156.95    3.22    3.22   37.76    7.27    0.01    0.12    4.93    2.18     0.58    0.00    0.11    0.00
   80   15.90    3.69    1.73    2.23    6.91    0.00  154.79    5.30    5.35    8.90    0.00    0.00    0.11    2.39    2.45     0.05    0.00    0.01    0.00
   81    0.50    0.00    1.48    2.28    0.04    0.00  150.10    5.15    6.44    4.17    0.00    0.00    0.10    0.01    4.55     0.01    0.00    0.00    0.00
   82    7.10    0.25    1.32    2.32    0.00    0.00  150.88    5.65    5.81    4.00    0.05    0.00    0.08    0.00    5.20     0.00    0.00    0.00    0.00
   83    0.40    0.00    1.13    2.36    0.00    0.00  147.26    4.01    5.15    3.58    0.00    0.00    0.07    0.00    4.99     0.00    0.00    0.00    0.00
   84    2.20    0.00    0.97    2.39    0.00    0.00  143.95    5.46    5.88    3.43    0.00    0.00    0.06    0.00    4.11     0.00    0.00    0.00    0.00
   85    3.50    0.00    0.85    2.42    0.00    0.00  141.08    6.21    6.74    3.34    0.00    0.00    0.05    0.00    3.75     0.00    0.00    0.00    0.00
   86    0.00    0.00    0.73    2.44    0.00    0.00  136.80    4.28    5.72    3.23    0.00    0.00    0.04    0.00    3.99     0.00    0.00    0.00    0.00
   87    1.00    0.00    0.62    2.45    0.00    0.00  133.90    3.90    5.12    3.14    0.00    0.00    0.04    0.00    2.98     0.00    0.00    0.00    0.00
   88   13.90    1.61    0.66    2.46    0.00    0.00  140.04    5.29    5.81    4.71    0.26    0.00    0.03    0.00    3.43     0.02    0.00    0.00    0.00
   89    3.10    0.00    0.58    2.47    0.00    0.00  138.92    4.10    4.45    3.19    0.00    0.00    0.03    0.00    3.45     0.00    0.00    0.00    0.00
   90    0.00    0.00    0.50    2.47    0.00    0.00  135.64    3.28    4.45    3.05    0.00    0.00    0.02    0.00    1.81     0.00    0.00    0.00    0.00
   91    0.40    0.00    0.43    2.47    0.00    0.00  132.87    3.17    4.48    2.97    0.00    0.00    0.02    0.00    1.89     0.00    0.00    0.00    0.00
    3  387.70  160.09   39.07   59.71   94.12    0.00  132.87  122.12  137.15  260.59   30.82   10.86    3.20   31.02   83.73     4.19    0.00    0.77    0.00
   92   45.90   21.33    0.68    2.46    1.65    0.00  150.55    3.06    3.12   23.55    3.85    0.01    0.02    0.00    0.66     0.26    0.00    0.05    0.00
   93   15.50    3.07    0.78    2.46    2.57    0.00  157.70    1.35    1.35    7.08    0.00    0.00    0.02    0.00    0.32     0.06    0.00    0.01    0.00
   94    0.20    0.00    0.67    2.45    0.03    0.00  153.80    4.06    4.24    3.45    0.00    0.00    0.01    0.00    0.03     0.00    0.00    0.00    0.00
   95    0.00    0.00    0.57    2.44    0.00    0.00  149.07    4.73    5.64    3.13    0.00    0.00    0.01    0.00    0.16     0.00    0.00    0.00    0.00
   96    0.10    0.00    0.49    2.43    0.00    0.00  145.43    3.74    4.81    3.00    0.00    0.00    0.01    0.00    0.23     0.00    0.00    0.00    0.00
   97   12.00    1.39    0.52    2.42    0.00    0.00  150.58    4.75    4.80    4.34    0.18    0.00    0.01    0.00    0.03     0.01    0.00    0.00    0.00
   98    8.10    0.43    0.53    2.40    0.31    0.00  152.50    4.87    4.92    3.47    0.00    0.00    0.01    0.00    0.05     0.01    0.00    0.00    0.00
   99   20.50    5.98    0.75    2.39    4.90    0.00  157.51    2.57    2.57    8.92    1.81    0.00    0.01    0.00    0.04     0.10    0.00    0.02    0.00
  100   31.30   14.03    1.14    2.39   11.19    0.00  158.82    1.33    1.33   17.23    1.65    0.01    0.01    0.00    0.06     0.18    0.00    0.03    0.00
  101   16.60    4.19    1.35    2.40    8.55    0.00  156.93    3.18    3.18    8.40    0.01    0.00    0.01    0.00    0.07     0.06    0.00    0.01    0.00
  102   16.80    4.18    1.48    2.41    7.18    0.00  157.25    2.85    2.85    8.20    0.86    0.00    0.00    0.00    0.05     0.05    0.00    0.01    0.00
[...]
     83  16   Fr333ab4   .695E+01   83.00  160.00    3.35    0.00  244.99    0.00    0.20 2650.20 1148.98  677.85  768.80  262.06   25.05   28.17   21.10    7.36 1148.98
     84  16   Fr333ab4   .613E+00   83.00  160.00    0.52    0.00  247.30    0.00    0.20 2650.20 1157.54  651.07  775.95   27.92   12.09   24.71   21.16    7.38 1157.54
     85  17   Fr333ab4   .314E-01   70.00  160.00    2.14    0.00    0.00    0.00    0.20 2650.20  610.29 1093.39  838.71    0.50    0.02    1.33    9.18    6.43  610.29
     86  17   Fr333ab4   .380E-02   70.00  160.00    0.58    0.00    0.00    0.00    0.20 2650.20  611.32 1091.04  839.07    0.10    0.01    0.39    9.21    6.45  611.32
     87  17   Fr333ab4   .107E+00   70.00  160.00    3.60    0.00    0.00    0.00    0.20 2650.20  599.02 1128.83  832.47    0.85    0.19    1.72    9.74    6.82  599.02
     88  17   Fr333ab4   .675E-01   83.00  160.00    0.56    0.00  247.17    0.00    0.20 2650.20 1157.50  650.94  776.13   23.50   12.10   24.65   21.16    7.38 1157.50
     89  17   Fr333ab4   .229E+01   83.00  160.00    4.61    0.00  243.93    0.00    0.20 2650.20 1147.40  682.57  767.34  313.77   26.38   28.47   21.12    7.37 1147.40
     90  17   Fr333ab4   .573E+00   83.00  160.00    2.31    0.00  250.47    0.00    0.20 2650.20 1156.87  652.64  775.68  133.00   16.57   26.91   21.19    7.40 1156.87
     91  18   Fr333ab4   .105E+01   70.00  160.00    2.34    0.00    0.00    0.00    0.20 2650.20  610.18 1093.30  838.99    0.83    0.02    1.79    9.16    6.41  610.18
     92  18   Fr333ab4   .141E+00   70.00  160.00    0.50    0.00    0.00    0.00    0.20 2650.20  611.34 1090.63  839.44    0.13    0.01    0.51    9.20    6.44  611.34
     93  18   Fr333ab4   .298E+01   70.00  160.00    3.60    0.00    0.00    0.00    0.20 2650.20  598.98 1128.55  832.79    1.26    0.19    2.11    9.73    6.81  598.99
     94  18   Fr333ab4   .204E+01   83.00  160.00    3.58    0.00  244.66    0.00    0.20 2650.20 1148.63  678.24  769.10  248.69   25.31   28.06   21.11    7.37 1148.63
     95  18   Fr333ab4   .668E+00   83.00  160.00    2.37    0.00  250.48    0.00    0.20 2650.20 1156.81  652.31  776.10  141.40   16.58   27.04   21.19    7.40 1156.81
     96  18   Fr333ab4   .941E-01   83.00  160.00    0.56    0.00  247.17    0.00    0.20 2650.20 1157.45  650.56  776.55   24.52   12.10   24.67   21.16    7.38 1157.45
     97  19   Fr333ab4   .428E-01   70.00  160.00    0.54    0.00    0.00    0.00    0.20 2650.20  611.31 1090.67  839.44    0.12    0.01    0.48    9.20    6.44  611.32
     98  19   Fr333ab4   .126E+01   70.00  160.00    4.01    0.00    0.00    0.00    0.20 2650.20  598.54 1130.44  832.35    1.26    0.20    2.11    9.77    6.84  598.54
     99  19   Fr333ab4   .342E+00   70.00  160.00    2.31    0.00    0.00    0.00    0.20 2650.20  610.20 1093.25  839.02    0.72    0.02    1.65    9.16    6.41  610.20
    100  19   Fr333ab4   .166E+01   83.00  160.00    2.31    0.00  250.55    0.00    0.20 2650.20 1156.82  652.26  776.12  148.17   16.57   27.18   21.19    7.40 1156.82
    101  19   Fr333ab4   .234E+00   83.00  160.00    0.52    0.00  247.19    0.00    0.20 2650.20 1157.46  650.52  776.57   24.95   12.09   24.68   21.16    7.38 1157.46
    102  19   Fr333ab4   .478E+01   83.00  160.00    3.64    0.00  244.69    0.00    0.20 2650.20 1148.55  678.48  769.03  264.63   25.38   28.20   21.11    7.37 1148.55
    103  20   Fr333ab4   .237E+01   70.00  160.00    3.84    0.00    0.00    0.00    0.20 2650.20  598.71 1129.53  832.68    1.30    0.19    2.14    9.75    6.82  598.71
    104  20   Fr333ab4   .143E+00   70.00  160.00    0.52    0.00    0.00    0.00    0.20 2650.20  611.32 1090.52  839.58    0.14    0.01    0.52    9.20    6.44  611.32
    105  20   Fr333ab4   .854E+00   70.00  160.00    2.24    0.00    0.00    0.00    0.20 2650.20  610.21 1093.08  839.16    0.77    0.02    1.73    9.16    6.41  610.21
    106  20   Fr333ab4   .764E+00   83.00  160.00    0.50    0.00  247.24    0.00    0.20 2650.20 1157.45  650.35  776.75   27.17   12.09   24.71   21.16    7.38 1157.45
    107  20   Fr333ab4   .476E+01   83.00  160.00    2.27    0.00  250.62    0.00    0.20 2650.20 1156.81  652.09  776.29  157.08   16.56   27.36   21.19    7.39 1156.81
    108  20   Fr333ab4   .108E+02   83.00  160.00    3.54    0.00  244.80    0.00    0.20 2650.20 1148.65  677.91  769.35  261.14   25.26   28.24   21.10    7.37 1148.65
    109  21   Fr333ab4   .285E-02   70.00  160.00    4.12    0.00    0.00    0.00    0.20 2650.20  598.50 1131.57  831.51    0.62    0.20    1.44    9.81    6.87  598.50
    110  21   Fr333ab4   .951E-03   70.00  160.00    2.09    0.00    0.00    0.00    0.20 2650.20  606.90 1100.94  837.54    0.31    0.05    0.95    9.29    6.50  606.90
    111  21   Fr333ab4   .100E+01   83.00  160.00    2.31    0.00  250.56    0.00    0.20 2650.20 1156.93  653.10  775.17  142.42   16.57   27.07   21.19    7.39 1156.93
    112  21   Fr333ab4   .349E+01   83.00  160.00    4.12    0.00  244.43    0.00    0.20 2650.20 1148.10  681.17  767.44  298.42   25.91   28.38   21.11    7.37 1148.10
    113  21   Fr333ab4   .130E+00   83.00  160.00    0.52    0.00  247.20    0.00    0.20 2650.20 1157.57  651.36  775.62   23.39   12.09   24.65   21.16    7.38 1157.57
    114  22   Fr333ab4   .877E+00   70.00  160.00    4.48    0.00    0.00    0.00    0.20 2650.20  598.13 1133.07  831.21    1.34    0.21    2.17    9.81    6.87  598.13
    115  22   Fr333ab4   .285E-01   70.00  160.00    0.52    0.00    0.00    0.00    0.20 2650.20  611.39 1091.22  838.80    0.11    0.01    0.45    9.21    6.45  611.39
    116  22   Fr333ab4   .208E+00   70.00  160.00    2.41    0.00    0.00    0.00    0.20 2650.20  610.21 1093.91  838.36    0.71    0.02    1.64    9.16    6.41  610.22
    117  22   Fr333ab4   .154E+01   83.00  160.00    2.27    0.00  250.59    0.00    0.20 2650.20 1156.92  652.92  775.35  147.92   16.56   27.15   21.19    7.39 1156.92
    118  22   Fr333ab4   .474E+01   83.00  160.00    3.86    0.00  244.62    0.00    0.20 2650.20 1148.39  680.00  767.97  292.26   25.63   28.34   21.11    7.37 1148.39
    119  22   Fr333ab4   .235E+00   83.00  160.00    0.52    0.00  247.23    0.00    0.20 2650.20 1157.55  651.20  775.80   25.09   12.09   24.68   21.16    7.38 1157.55
    120  23   Fr333ab4   .854E+00   70.00  160.00    2.27    0.00    0.00    0.00    0.20 2650.20  610.24 1093.50  838.71    0.78    0.02    1.74    9.16    6.41  610.24
    121  23   Fr333ab4   .120E+00   70.00  160.00    0.56    0.00    0.00    0.00    0.20 2650.20  611.33 1090.98  839.12    0.15    0.01    0.55    9.20    6.44  611.33
    122  23   Fr333ab4   .214E+01   70.00  160.00    3.58    0.00    0.00    0.00    0.20 2650.20  599.04 1128.70  832.52    1.20    0.19    2.06    9.73    6.81  599.04
    123  23   Fr333ab4   .375E+00   83.00  160.00    0.52    0.00  247.24    0.00    0.20 2650.20 1157.50  650.84  776.22   26.36   12.09   24.70   21.16    7.38 1157.50
    124  23   Fr333ab4   .241E+01   83.00  160.00    2.31    0.00  250.61    0.00    0.20 2650.20 1156.86  652.57  775.76  154.59   16.57   27.27   21.19    7.39 1156.86
    125  23   Fr333ab4   .566E+01   83.00  160.00    3.17    0.00  245.06    0.00    0.20 2650.20 1149.18  676.84  769.34  238.73   24.82   28.02   21.10    7.36 1149.18
    126  24   Fr333ab4   .856E-02   70.00  160.00    2.04    0.00    0.00    0.00    0.20 2650.20  610.35 1093.53  838.47    0.41    0.02    1.17    9.19    6.43  610.36
    127  24   Fr333ab4   .314E-01   70.00  160.00    2.97    0.00    0.00    0.00    0.20 2650.20  599.78 1125.85  832.97    0.62    0.18    1.45    9.70    6.79  599.78
    128  24   Fr333ab4   .951E-03   70.00  160.00    0.82    0.00    0.00    0.00    0.20 2650.20  611.25 1091.50  838.77    0.11    0.01    0.43    9.21    6.45  611.25
    129  24   Fr333ab4   .113E+01   83.00  160.00    2.24    0.00  250.54    0.00    0.20 2650.20 1156.92  652.90  775.36  139.72   16.56   27.03   21.19    7.39 1156.92
    130  24   Fr333ab4   .149E+00   83.00  160.00    0.54    0.00  247.22    0.00    0.20 2650.20 1157.54  651.21  775.80   24.77   12.10   24.68   21.16    7.38 1157.54
    131  24   Fr333ab4   .243E+01   83.00  160.00    3.09    0.00  245.06    0.00    0.20 2650.20 1149.33  676.86  769.04  217.11   24.73   27.83   21.10    7.36 1149.33
    132  25   Fr333ab4   .856E-02   70.00  160.00    9.95    0.00    0.00    0.00    0.20 2650.20  593.06 1152.99  825.53    1.58    0.28    2.35   10.19    7.13  593.06
    133  25   Fr333ab4   .159E+00   83.00  160.00    2.27    0.00  250.40    0.00    0.20 2650.20 1156.99  653.52  774.67  114.34   16.56   26.54   21.19    7.40 1156.99
    134  25   Fr333ab4   .573E+00   83.00  160.00    3.99    0.00  244.33    0.00    0.20 2650.20 1148.32  681.11  767.11  238.68   25.78   27.98   21.11    7.37 1148.32
    135  25   Fr333ab4   .257E-01   83.00  160.00    0.54    0.00  250.26    0.00    0.20 2650.20 1157.59  651.69  775.28   20.17   16.31   24.57   21.10    7.36 1157.59
    136  26   Fr333ab4   .380E-02   70.00  160.00    2.73    0.00    0.00    0.00    0.20 2650.20  610.13 1094.48  837.99    0.49    0.02    1.32    9.19    6.43  610.13
    137  26   Fr333ab4   .380E-02   70.00  160.00    6.29    0.00    0.00    0.00    0.20 2650.20  596.41 1140.54  829.06    0.95    0.24    1.80    9.98    6.98  596.41
    138  26   Fr333ab4   .206E+01   83.00  160.00    4.10    0.00  244.40    0.00    0.20 2650.20 1148.16  681.34  767.18  283.47   25.89   28.28   21.11    7.37 1148.16
    139  26   Fr333ab4   .551E+00   83.00  160.00    2.27    0.00  250.51    0.00    0.20 2650.20 1156.97  653.33  774.88  131.98   16.56   26.88   21.19    7.40 1156.97
    140  26   Fr333ab4   .656E-01   83.00  160.00    0.52    0.00  250.29    0.00    0.20 2650.20 1157.57  651.49  775.50   21.62   16.30   24.65   21.09    7.36 1157.57
    141  27   Fr333ab4   .951E-03   70.00  160.00    1.95    0.00    0.00    0.00    0.20 2650.20  610.43 1093.82  838.05    0.29    0.02    0.92    9.20    6.44  610.43
    142  27   Fr333ab4   .614E+00   83.00  160.00    0.52    0.00  247.34    0.00    0.20 2650.20 1157.61  651.68  775.26   27.88   12.09   24.71   21.16    7.38 1157.61
    143  27   Fr333ab4   .630E+01   83.00  160.00    3.21    0.00  245.11    0.00    0.20 2650.20 1149.25  677.86  768.31  247.71   24.88   28.07   21.10    7.36 1149.25
    144  27   Fr333ab4   .346E+01   83.00  160.00    2.21    0.00  250.68    0.00    0.20 2650.20 1156.99  653.36  774.82  153.42   16.55   27.26   21.19    7.39 1156.99
    145  28   Fr333ab4   .144E+00   83.00  160.00    2.21    0.00  219.74    0.00    0.20 2650.20 1157.07  653.84  774.29  109.03   14.85   26.91   21.26    7.42 1157.07
    146  28   Fr333ab4   .284E+00   83.00  160.00    3.67    0.00  217.58    0.00    0.20 2650.20 1152.32  667.96  770.78  201.97   19.51   28.14   21.28    7.42 1152.32
    147  28   Fr333ab4   .323E-01   83.00  160.00    0.56    0.00  218.93    0.00    0.20 2650.20 1157.68  652.21  774.69   21.51   14.41   24.87   21.24    7.41 1157.68
    148  29   Fr333ab4   .366E+00   83.00  160.00    0.52    0.00  219.01    0.00    0.20 2650.20 1157.62  651.58  775.38   26.15   14.39   24.99   21.24    7.41 1157.62
    149  29   Fr333ab4   .545E+01   83.00  160.00    3.19    0.00  217.18    0.00    0.20 2650.20 1149.33  677.84  768.25  231.24   34.96   28.28   21.26    7.42 1149.33
    150  29   Fr333ab4   .245E+01   83.00  160.00    2.31    0.00  219.95    0.00    0.20 2650.20 1156.97  653.30  774.96  151.60   14.86   27.76   21.25    7.42 1156.97
    151  30   Fr333ab4   .277E+00   70.00  160.00    5.29    0.00    0.00    0.00    0.20 2650.20  599.44 1138.43  824.94    0.83    2.74    1.35   20.90   14.63  599.44
    152  30   Fr333ab4   .979E-01   70.00  160.00    2.21    0.00    0.00    0.00    0.20 2650.20  610.85 1095.37  835.65    0.31    1.55    0.79   20.66   14.46  610.85
    153  30   Fr333ab4   .124E-01   70.00  160.00    0.60    0.00    0.00    0.00    0.20 2650.20  611.88 1093.15  835.96    0.06    1.50    0.25   20.66   14.46  611.88
    154  30   Fr333ab4   .805E+01   83.00  160.00    2.27    0.00  219.99    0.00    0.20 2650.20 1156.90  652.61  775.72  155.74   14.85   27.93   21.25    7.42 1156.90
    155  30   Fr333ab4   .219E+02   83.00  160.00    3.73    0.00  217.00    0.00    0.20 2650.20 1148.58  679.36  768.28  237.69   35.53   28.56   21.26    7.42 1148.58
    156  30   Fr333ab4   .124E+01   83.00  160.00    0.52    0.00  219.05    0.00    0.20 2650.20 1157.53  650.91  776.14   29.66   14.39   25.02   21.24    7.41 1157.53
    157  31   Fr333ab4   .369E+00   83.00  160.00    2.27    0.00  219.83    0.00    0.20 2650.20 1157.06  653.92  774.24  125.82   14.86   27.26   21.26    7.42 1157.06
    158  31   Fr333ab4   .636E+00   83.00  160.00    3.15    0.00  212.19    0.00    0.20 2650.20 1149.49  678.36  767.50  190.98   23.51   27.88   21.26    7.42 1149.49
    159  31   Fr333ab4   .475E-01   83.00  160.00    0.54    0.00  218.94    0.00    0.20 2650.20 1157.69  652.23  774.65   21.66   14.40   24.88   21.24    7.41 1157.69



                AVE MONTHLY BASIN VALUES
                   SNOW                      WATER               SED
  MON     RAIN     FALL   SURF Q    LAT Q    YIELD       ET    YIELD      PET
          (MM)     (MM)     (MM)     (MM)     (MM)     (MM)   (T/HA)     (MM)
    1   214.97     0.00    56.98    12.86    71.30    82.36    12.11   135.84
    2   292.39     0.00   102.29    25.68   140.15    72.82    19.58   102.60
    3   388.83     0.00   160.11    39.43   259.25   122.37    29.15   137.28
    4   707.33     0.00   381.36    50.43   514.00    78.76    59.59    83.98
    5   411.37     0.00   146.78    44.75   312.99    93.27    21.54    97.18
    6   265.33     0.00   105.47    24.99   247.49    96.79    22.62   114.60
    7   104.80     0.00    28.30    12.72   129.51    50.45     4.45   117.33
    8    94.60     0.00    20.56     9.39    85.96    41.06     3.22   103.38
    9     0.10     0.00     0.00     0.47    27.33    22.72     0.00   138.16
   10    17.27     0.00     1.06     0.89     7.16    19.69     0.19   150.58
   11    95.83     0.00    15.24     4.76    21.83    46.10     3.38   143.48
   12    53.90     0.00     4.72     3.90     9.97    58.62     1.17   138.94

     AVE ANNUAL BASIN STRESS DAYS
               WATER STRESS DAYS =     0.32
               TEMPERATURE STRESS DAYS =     3.52
               NITROGEN STRESS DAYS =    35.00
               PHOSPHORUS STRESS DAYS =     0.00
               AERATION STRESS DAYS =     0.00
1
    SWAT Sep 7    VER 2018/Rev 670                                                  

    General Input/Output section (file.cio):                                        
    12/22/2020 12:00:00 AM ARCGIS-SWAT interface AV                                 
                                                                                    
         AVE ANNUAL BASIN VALUES

              PRECIP =   2650.2 MM
              SNOW FALL =    0.00 MM
              SNOW MELT =     0.00 MM
              SUBLIMATION =     0.00 MM
              SURFACE RUNOFF Q =  1024.08 MM
              LATERAL SOIL Q =  230.58 MM
              TILE Q =     0.00 MM
              GROUNDWATER (SHAL AQ) Q =   544.01 MM
              GROUNDWATER (DEEP AQ) Q =    29.95 MM
              REVAP (SHAL AQ => SOIL/PLANTS) =   29.29 MM
              DEEP AQ RECHARGE =    30.21 MM
              TOTAL AQ RECHARGE =  604.15 MM
              TOTAL WATER YLD =  1828.63 MM
              PERCOLATION OUT OF SOIL =  604.23 MM
              ET =    785.9 MM
              PET =   1464.6MM
              TRANSMISSION LOSSES =     0.00 MM
              SEPTIC INFLOW =       0.00 MM
              TOTAL SEDIMENT LOADING =    177.22 T/HA
              TILE FROM IMPOUNDED WATER =     0.000 (MM)
              EVAPORATION FROM IMPOUNDED WATER =     0.000 (MM)
              SEEPAGE INTO SOIL FROM IMPOUNDED WATER =    0.000 (MM)
              OVERFLOW FROM IMPOUNDED WATER =    0.000 (MM)
1
    SWAT Sep 7    VER 2018/Rev 670                                                  

    General Input/Output section (file.cio):                                        
    12/22/2020 12:00:00 AM ARCGIS-SWAT interface AV                                 
                                                                                    
              AVE ANNUAL BASIN VALUES


              NUTRIENTS
                   ORGANIC N =    21.964 (KG/HA)
                   ORGANIC P =     4.458 (KG/HA)
                   NO3 YIELD (SQ) =    13.870 (KG/HA)
                   NO3 YIELD (LAT) =    4.625 (KG/HA)
                   NO3 YIELD (TILE) =    0.000 (KG/HA)
                   SOLP YIELD (TILE) =    0.000(KG/HA)
                   SOLP YIELD (SURF INLET RISER) =    0.000 (KG/HA)
                   SOL P YIELD =    0.062 (KG/HA)
                   NO3 LEACHED =    43.432 (KG/HA)
                   P LEACHED =     0.259 (KG/HA)
                   N UPTAKE =   142.376 (KG/HA)
                   P UPTAKE =   30.131 (KG/HA)
                   NO3 YIELD (GWQ) =     0.722 (KG/HA)
                   ACTIVE TO SOLUTION P FLOW =       -20.118 (KG/HA)
                   ACTIVE TO STABLE P FLOW =       -16.942 (KG/HA)
                   N FERTILIZER APPLIED =   184.669 (KG/HA)
                   P FERTILIZER APPLIED =     0.000 (KG/HA)
                   N FIXATION =     0.000 (KG/HA)
                   DENITRIFICATION =     0.000 (KG/HA)
                   HUMUS MIN ON ACTIVE ORG N =     9.499 (KG/HA)
                   ACTIVE TO STABLE ORG N =    -2.611 (KG/HA)
                   HUMUS MIN ON ACTIVE ORG P =    1.651 (KG/HA)
                   MIN FROM FRESH ORG N =   26.876 (KG/HA)
                   MIN FROM FRESH ORG P =    9.836 (KG/HA)
                   NO3 IN RAINFALL =     4.419 (KG/HA)
                   INITIAL NO3 IN SOIL =      40.509 (KG/HA)
                   FINAL NO3 IN SOIL =        28.499 (KG/HA)
                   INITIAL ORG N IN SOIL =    6857.143 (KG/HA)
                   FINAL ORG N IN SOIL =      6670.613 (KG/HA)
                   INITIAL MIN P IN SOIL =    2051.447 (KG/HA)
                   FINAL MIN P IN SOIL =      1933.128 (KG/HA)
                   INITIAL ORG P IN SOIL =     840.000 (KG/HA)
                   FINAL ORG P IN SOIL =     820.129 (KG/HA)
                   NO3 IN FERT =   184.669 (KG/HA)
                   AMMONIA IN FERT =     0.000 (KG/HA)
                   ORG N IN FERT =     0.000 (KG/HA)
                   MINERAL P IN FERT =     0.000 (KG/HA)
                   ORG P IN FERT =     0.000 (KG/HA)
                   N REMOVED IN YIELD =   110.188 (KG/HA)
                   P REMOVED IN YIELD =    18.637 (KG/HA)
                   AMMONIA VOLATILIZATION =     0.000 (KG/HA)
                   AMMONIA NITRIFICATION =      0.000 (KG/HA)
                   NO3 EVAP-LAYER 2 TO 1 =    8.823

                   DIE-GRO P Q =           0.0 (No/M2)
                   DIE-GRO LP Q =           0.0 (No/M2)
                   DIE-GRO P SED =          0.0 (No/M2)
                   DIE-GRO LP SED =          0.0 (No/M2)
                   BACT P RUNOFF =          0.0 (No/M2)
                   BACT LP RUNOFF =          0.0 (No/M2)
                   BACT P SEDIMENT =          0.0 (No/M2)
                   BACT LP SEDIMENT =          0.0 (No/M2)
                   BACT P INCORP =          0.0 (No/M2)
                   BACT LP INCORP =          0.0 (No/M2)

                   NITRATE SEPTIC =         0.00 (kg/ha)
                   AMMONIA SEPTIC =         0.00 (kg/ha)
                   ORG N SEPTIC =         0.00 (kg/ha)
                   FRESH ORGN SEPTIC =         0.00 (kg/ha)
                   ORG P SEPTIC =         0.00 (kg/ha)
                   FRESH ORGP SEPTIC =         0.00 (kg/ha)
                   SOL P SEPTIC =         0.00 (kg/ha)
                   BOD SEPTIC =         0.00 (kg/ha)
